VERS 00000001 5
HEAD 0000131e <?xml version="1.0"?>
<?xml-stylesheet type="text/xsl" href="/resources/transform.xslt"?><header><componentName>correlator</componentName><version>10.5.0.0.357639</version><build>rel/10.5.0.x@357639</build><buildPlatform>amd64-win</buildPlatform><platform>Windows 10 Enterprise</platform><cputype>GenuineIntel family 6 model 14 stepping 3 Intel(R) Core(TM) i7-6600U CPU @ 2.60GHz</cputype><cpus name="cpus">4.00</cpus><javaEnabled>true</javaEnabled><replayLogMode>inputLog</replayLogMode><args><arg>C:\dev\apama_win_full_latest\Apama\bin\correlator.exe</arg><arg>--config</arg><arg>C:\Users\y508970\workspace105\CoffeeFactoryDataSimulator\config\CorrelatorConfig.yaml</arg><arg>--port</arg><arg>15904</arg><arg>--loglevel</arg><arg>INFO</arg><arg>--name</arg><arg>Apama Designer Correlator for CoffeeFactoryDataSimulator(CoffeeFactoryDataSimulator:Correlator2)</arg><arg>-j</arg><arg>--inputLog</arg><arg>logs/Correlator2_${START_TIME}_${ID}.input.log</arg></args><environment><variable>ALLUSERSPROFILE=C:\ProgramData</variable><variable>APAMA_HOME=C:\dev\apama_win_full_latest\Apama</variable><variable>APAMA_WORK=C:\Users\Public\SoftwareAG\ApamaWork_10.5</variable><variable>APPDATA=C:\Users\y508970\AppData\Roaming</variable><variable>COMMONPROGRAMFILES=C:\Program Files\Common Files</variable><variable>COMMONPROGRAMFILES(X86)=C:\Program Files (x86)\Common Files</variable><variable>COMMONPROGRAMW6432=C:\Program Files\Common Files</variable><variable>COMPUTERNAME=SAG-98V9PF2</variable><variable>COMSPEC=C:\Windows\system32\cmd.exe</variable><variable>DEFLOGDIR=C:\ProgramData\McAfee\Endpoint Security\Logs</variable><variable>DRIVERDATA=C:\Windows\System32\Drivers\DriverData</variable><variable>EMPIRUMSERVER=cukuni02.eur.ad.sag</variable><variable>EMPIRUMSERVICEPARTITION=0</variable><variable>EMPSRVLONG=cukuni02.eur.ad.sag</variable><variable>HOMEDRIVE=C:</variable><variable>HOMEPATH=\Users\y508970</variable><variable>LOCALAPPDATA=C:\Users\y508970\AppData\Local</variable><variable>LOGONSERVER=\\CUKDC85</variable><variable>NUMBER_OF_PROCESSORS=4</variable><variable>ONEDRIVE=C:\Users\y508970\OneDrive - Software AG</variable><variable>ONEDRIVECOMMERCIAL=C:\Users\y508970\OneDrive - Software AG</variable><variable>OS=Windows_NT</variable><variable>PATH=C:\dev\apama_win_full_latest\Apama\..\jvm\jvm\jre\bin\server;C:\dev\apama_win_full_latest\Apama\..\jvm\jvm\jre\bin;C:\dev\apama_win_full_latest\Apama\bin;C:\dev\apama_win_full_latest\Apama\..\common\security\openssl\bin;C:\Users\Public\SoftwareAG\ApamaWork_10.5\lib;C:\dev\apama_win_full_latest\Apama\..\jvm\jvm\jre\bin;C:\dev\apama_win_full_latest\Apama\..\jvm\jvm\jre\bin\server;C:\dev\apama_win_full_latest\Apama\..\UniversalMessaging\cplus\lib\x86_64;C:\dev\apama_win_full_latest\Apama\bin;C:\Windows\system32;C:\Windows;C:\Windows\System32\Wbem;C:\Windows\System32\WindowsPowerShell\v1.0\;C:\Windows\System32\OpenSSH\;C:\Program Files\Intel\WiFi\bin\;C:\Program Files\Common Files\Intel\WirelessCommon\;C:\Program Files (x86)\Intel\Intel(R) Management Engine Components\DAL;C:\Program Files\Intel\Intel(R) Management Engine Components\DAL;C:\Program Files\PuTTY\;C:\Program Files\SlikSvn\bin;C:\Program Files\dotnet\;C:\Program Files\Microsoft SQL Server\130\Tools\Binn\;C:\Program Files\TortoiseSVN\bin;C:\Program Files\TortoiseGit\bin;C:\Users\y508970\AppData\Local\Microsoft\WindowsApps;C:\Users\y508970\AppData\Local\Programs\Git\cmd;C:\Users\y508970\AppData\Local\GitHubDesktop\bin</variable><variable>PATHEXT=.COM;.EXE;.BAT;.CMD;.VBS;.VBE;.JS;.JSE;.WSF;.WSH;.MSC</variable><variable>PROCESSOR_ARCHITECTURE=AMD64</variable><variable>PROCESSOR_IDENTIFIER=Intel64 Family 6 Model 78 Stepping 3, GenuineIntel</variable><variable>PROCESSOR_LEVEL=6</variable><variable>PROCESSOR_REVISION=4e03</variable><variable>PROGRAMDATA=C:\ProgramData</variable><variable>PROGRAMFILES=C:\Program Files</variable><variable>PROGRAMFILES(X86)=C:\Program Files (x86)</variable><variable>PROGRAMW6432=C:\Program Files</variable><variable>PROMPT=$P$G</variable><variable>PSMODULEPATH=C:\Program Files\WindowsPowerShell\Modules;C:\Windows\system32\WindowsPowerShell\v1.0\Modules;C:\Program Files\Barracuda\Network Access Client\Modules</variable><variable>PUBLIC=C:\Users\Public</variable><variable>SESSIONNAME=Console</variable><variable>SSL_CERT_FILE=C:\dev\apama_win_full_latest\Apama\..\common\security\openssl\cert.pem</variable><variable>SYSTEMDRIVE=C:</variable><variable>SYSTEMROOT=C:\Windows</variable><variable>TEMP=C:\Users\y508970\AppData\Local\Temp</variable><variable>TMP=C:\Users\y508970\AppData\Local\Temp</variable><variable>USERDNSDOMAIN=EUR.AD.SAG</variable><variable>USERDOMAIN=EUR</variable><variable>USERDOMAIN_ROAMINGPROFILE=EUR</variable><variable>USERNAME=y508970</variable><variable>USERPROFILE=C:\Users\y508970</variable><variable>WINDIR=C:\Windows</variable></environment><version>10.5.0.0.357639</version></header>
YAML 000005c5 ###############################################################################
# $Copyright (c) 2016 Software AG, Darmstadt, Germany and/or Software AG USA Inc., Reston, VA, USA, and/or its subsidiaries and/or its affiliates and/or their licensors.$
# Use, reproduction, transfer, publication or disclosure is prohibited except as specifically provided for in your License Agreement with Software AG
###############################################################################

#To set the default log file and level for an EPL package, monitor, or event, specify
# logging details in the eplLogging section of the YAML configuration file.
#For example:
#eplLogging:
#  com.myCompany.Client:
#    file: apama/Client.log
#    level: DEBUG
#  com.myCompany.Internal: { level: ERROR }

engineConnect:
    - sourceHost: localhost
      sourcePort: 15903

      channels:
        - roastSimulatorChannel
        - extractorSimulatorChannel
        - freezeSimulatorChannel
        - freezeDryerSimulatorChannel

      mode: parallel
      disconnectIfSlow: true

#See the information on setting log files and log levels in a YAML configuration file in the documentation for more
# information about the supported options.
#To enable use of this file when you launch this project from Designer, edit the project's run/launch configuration,
#open the correlator, and tick the "Configuration" checkbox next to the textbox that names this .yaml file.
 00000055 C:\Users\y508970\workspace105\CoffeeFactoryDataSimulator\config\CorrelatorConfig.yaml
RAND 00000009 461108480
TIME 00000010 1568124172.887,1
CONN 0000003c 6735042030941817184:6734760560260073824 from 127.0.0.1:50574
CONN 0000003c 1907214234774601728:1980451969446313984 from 127.0.0.1:50571
TIME 0000000e 1568124173.3,1
MONF 0000145f 
/** This event consists of events full of constants which are used in the RoastDrum.mon file */

event BeanColor{
	constant integer VERY_LIGHT := 90;
	constant integer LIGHT := 80;
	constant integer YELLOW := 70;
	constant integer BROWN := 60;
	constant integer VERY_BROWN := 40;
	constant integer BLACK := 20;
}

event AlertType{
	constant integer IMMINENT_FIRE := 1;
	constant integer FIRST_CRACK := 2;
	constant integer BROWN_STAGE := 3;
	constant integer FULL_CITY := 4;
	constant integer VIENA_COFFEE := 5;
	constant integer FULL_FRENCH := 6;
}

event BeanColorVolt{
	constant float MAXIMUM := 100.0; // = 10Volt DC -> green bean;
	constant float MINIMUM := 10.0; // = 1Volt DC -> extremely dark black bean;
}

event BeanTemp{
	// ALL values below are temperatures in celsius.
	//The names of the constants represent the color of the beans at the specific temperatures;
	constant float PALE := 131.0;
	constant integer LIGHT_BROWN := 198;
	constant integer MEDIUM_LIGHT_BROWN := 207;
	constant integer FULL_MEDIUM := 218;
	constant integer MEDIUM_DARK_BROWN := 223;
	constant integer DARK_BROWN := 229;
	constant integer VERY_DARK := 243;
	
}

event FreezerTemp{
	constant float RANDOM_FLUCTUATION_NUMBER := 1.5;
}

event FreezerDryer{
	constant float RANDOM_FLUCTUATION_NUMBER := 1.9;
	constant float MINIMUM_MOISTURE := 0.0;
}

event UserStatus{
	//The values represent the names of the queries that are passed to Prometheus
	//from which Grafana request them and uses their data;
	//Variables below are used in RoastDrum.mon
	constant string DRUM := "drum";
	constant string BEAN_COLOR := "beanColor";
	constant string BEAN_ILLUSTRATOR := "beanIllustrator";
	constant string ALERT := "alert";
	
	//Variables below are used in Extractor.mon
	constant string CAFFEINE := "caffeine";
	constant string VOLATILE_OILS := "volatileOils";
	constant string ORGANIC_ACIDS := "organicAcids";
	constant string EXTRACTOR_TEMP := "extractorTemp";
	constant string COFFEE_TO_WATER_RATIO := "coffeeToWater";
	
	constant string FREEZER_TEMP := "freezerTemp";
	
	constant string MOISTURE := "moisture";
	constant string VACUUM := "vacuum";
	constant string FREEZER_DRYER_TEMP := "freezerDryerTemp";
}

event Channel{
	constant string ROAST := "roastChannel";
	constant string EXTRACTOR := "extractorChannel";
	constant string FREEZE := "freezeChannel";
	constant string FREEZE_DRYER := "freezeDryerChannel";
	
	constant string ROAST_SIMULATOR := "roastSimulatorChannel";
	constant string EXTRACTOR_SIMULATOR := "extractorSimulatorChannel";
    constant string FREEZER_SIMULATOR := "freezeSimulatorChannel";
    constant string FREEZE_DRYER_SIMULATOR := "freezeDryerSimulatorChannel";

}

event Caffeine{
	// default values used to increase/decrease the height/length of the caffeine graph;
	constant float GRAPH_HEIGHT := 7.7;
	constant float GRAPH_LENGTH := 0.188;
}

event VolatileOils{
	// default values used to increase/decrease the height/length of the volatile oils graph;
	constant float GRAPH_HEIGHT := 5.19;
	constant float GRAPH_LENGTH := 0.0415;
}

event OrganicAcids{
	// default values used to increase/decrease the height/length of the organic graph;
	constant float GRAPH_HEIGHT := 3.11;
	constant float GRAPH_LENGTH := 0.0197;
}

event Math{
	constant float CUBED := 3.0;
	constant float PLANCK_FORMULA_SUBTRACTOR := -1.0; // bl
}

event Message{
	constant string LOADED_ROAST_SIMULATOR := "Loaded monitor RoastSimulator";
	constant string LOADED_EXTRACT_SIMULATOR := "Loaded monitor ExtractorSimulator";
	constant string LOADED_FREEZER_SIMULATOR := "Loaded monitor FreezerSimulator";
	constant string LOADED_FREEZE_DRYER_SIMULATOR := "Loaded monitor FreezerDryerSimulator";
}

event Time{
	constant float ADD_SECOND := 1.0;
}

event ExtractionBounds{ // bounds within the graph
	constant float MAXIMUM := 110.0;
	constant float MINIMUM := 0.0;
}

event Temperature{
	constant float PREHEAT_NUMBER := 13.1; //A random number; The random number has to be lower than 20 and higher than 10;
	constant float DRUM_MINIMUM := 0.0;
	constant float IMMINENT_FIRE := 258.0; // temperature at which the beans will start going on fire;
	
	constant float EXTRACTOR_INITIAL := 140.0; // random number between 130 and 150;
	//Has to differ from the starting drum temp in RoastDrum because it looks better on Grafana;
	constant float EXTRACTOR_PREHEAT := 12.1;  //A random number; The random number has to be lower than 20 and higher than 10;
	
	constant float FREEZER_MAX := -60.0;
	constant float FREEZER_MIN := -20.0;
}

event ColorScheme{
	constant integer SIZE := 50; // the size of the color scheme graph on Grafana that is displaying the current color of the beans;
}

event Divider{
	constant integer BY_HALF := 2;
}

event BeanTracker{
	constant float COLOR_CHANGER := 0.9; // 
	constant float COLOR_GATE_ENTRY := 0.4; // representing the percent (e.g. 0.4 = 40%);
}

event BeanRandom{
	constant float TEMP_INCREMENTER := 1.8; // maximum random value;
	constant float GATE_BOUND := 1.0; // representing the maximum percent value(e.g. 1.0 = 100%, 0.9 = 90%);
}
 00000064 C:\Users\y508970\workspace105\CoffeeFactoryDataSimulator\eventdefinitions\CoffeeFactoryConstants.mon
MONF 00000cec 
/** This monitor is responsible for ...  */

event CaffeineEvent{
	float currentCaffeine;
}

event VolatileOilsEvent{
	float currentVolatileOils;
}

event OrganicAcidsEvent{
	float currentOrganicAcids;
}

event ExtractorTemperature{
	float currentTemperature;
}

monitor ExtractorSimulator {

	float currentCaffeine := 1.0;
	float currentVolatileOils := 3.0;
	float currentOrganicAcids := 8.0;
	float currentTemp := preheatExtractor();
	float currentCoffeeToWaterRatio := 0.0;
	
	boolean highExtractionTemp := false; // used as a gate to decrease the temp;
	boolean lowExtractionTemp := true; // used as a gate to increase the temp;
	
	float caffeineTimeCounterSecs := 0.0;
	float oilsTimeCounterSecs := 0.0;
	float acidsTimeCounterSecs := 0.0;
	
	//Side value => Amount of compound (Unit) - A
	
	action onload() {
		log Message.LOADED_EXTRACT_SIMULATOR at INFO;
		initialize();
	}

	action initialize(){
		implementExtractorTemp();
		extractAll();
	}

	action extractAll(){
		extractCaffeine();
		extractVolatileOils();
		extractOrganicAcids();
	}

	/** 
	...
	*/
	action extractCaffeine(){
		listener listen := on all wait (1.0){
			currentCaffeine := blackBodyFormula(caffeineTimeCounterSecs, Caffeine.GRAPH_HEIGHT, Caffeine.GRAPH_LENGTH);  
			send CaffeineEvent(currentCaffeine) to Channel.EXTRACTOR; 
			caffeineTimeCounterSecs := caffeineTimeCounterSecs + Time.ADD_SECOND;
		}
	}

	/** 
	...
	*/
	action extractVolatileOils(){
		listener listen := on all wait (1.0){		
			currentVolatileOils := blackBodyFormula(oilsTimeCounterSecs, VolatileOils.GRAPH_HEIGHT, VolatileOils.GRAPH_LENGTH);	
			send VolatileOilsEvent(currentVolatileOils) to Channel.EXTRACTOR; 
			oilsTimeCounterSecs := oilsTimeCounterSecs + Time.ADD_SECOND;
		}
	}
	
	/** 
	...
	*/	
	action extractOrganicAcids(){
		listener listen := on all wait (1.0){
			currentOrganicAcids := blackBodyFormula(acidsTimeCounterSecs, OrganicAcids.GRAPH_HEIGHT, OrganicAcids.GRAPH_LENGTH); 
			send OrganicAcidsEvent(currentOrganicAcids) to Channel.EXTRACTOR; 
			acidsTimeCounterSecs := acidsTimeCounterSecs + Time.ADD_SECOND;
		}
	}
	
	/** 
		Increases/decreases the temperature in the extractor drum;
		
	*/
	action implementExtractorTemp(){
		listener listen := on all wait (2.0){
			float randomTempIncrementor := (2.0).rand(); // TODO FIX MAGIC NUMBER;
			currentTemp := currentTemp + randomTempIncrementor;
			send ExtractorTemperature(currentTemp) to Channel.EXTRACTOR; 
		}
	}
	
	/** 
	@param time = the time that has passed in seconds;
	@param height = increase value for higher function and decrease for lower; 7.7 is a random default value;
	@param length = increase to shrink function, decrease to expand function; 0.188 is a random default value;
	@return Max Planck's formula for Black-body radition
	*/
	action blackBodyFormula(float time, float height, float length) returns float{
		return (height * (length * time).pow(Math.CUBED)) / ( (float.E).pow(length * time) - Math.PLANCK_FORMULA_SUBTRACTOR);
	}
	
	/** 
	...
	*/
	action updateCoffeeToWaterRatio(){	
		//send ... to ...
	}
	
	action preheatExtractor() returns float{
		return (Temperature.EXTRACTOR_PREHEAT).rand() + Temperature.EXTRACTOR_INITIAL;
	}
	
}
 00000058 C:\Users\y508970\workspace105\CoffeeFactoryDataSimulator\monitors\ExtractorSimulator.mon
MONF 000006c7 
/** This monitor is responsible for ...  */

event FreezerDryerMoisture{
	float currentMoisture;
}

event FreezerDryerTemp{
	float currentTemp;
}

event FreezerDryerVacuum{
	float currentVacuum;
}

monitor FreezeDryerSimulator {

	float currentMoisture := 100.0;
	float currentTemp := 60.0;
	float currentVacuum := 150.0;
		
	boolean tempGate := false;
	boolean moistureGate := false;
	boolean vacuumGate := false;
	
	action onload() {
		initialize();
	}

	action initialize(){
		log Message.LOADED_FREEZE_DRYER_SIMULATOR at INFO;
		moistureEvaporating();
		implementTubeTemperature();
	}
		
	action moistureEvaporating(){
		listener listen := on all wait (2.0){
			float random := -(FreezerDryer.RANDOM_FLUCTUATION_NUMBER).rand();
			currentMoisture := currentMoisture + random;
			send FreezerDryerMoisture(currentMoisture) to Channel.FREEZE_DRYER;
		}
	}
	
	action implementTubeTemperature(){
		listener listen := on all wait (3.0){
			float random := (1.0).rand(); // plus flag switching between the two temps;
			currentTemp := currentTemp + random;
			implementFluctuation(tempGate, currentTemp);
			send FreezerDryerTemp(currentMoisture) to Channel.FREEZE_DRYER;
		}
	}
	
	action implementTubeVacuum(){
		listener listen := on all wait (2.0){
			float random := (4.0).rand(); // plus flag switching between the two temps;
			currentTemp := currentTemp + random;
			implementFluctuation(vacuumGate, currentTemp);
			send FreezerDryerTemp(currentMoisture) to Channel.FREEZE_DRYER;
		}
	}
	
	action implementFluctuation(boolean gate, float currentValue){
		if gate {
			currentValue := -currentValue;
			gate := false;
		}else{
			gate := true;
		}
	}
	
	
}
 0000005a C:\Users\y508970\workspace105\CoffeeFactoryDataSimulator\monitors\FreezeDryerSimulator.mon
MONF 0000043f 
/** This monitor is responsible for ...  */

event FreezerTemperature{
	float currentFreezerTemp;
}

monitor FreezerSimulator {
	
	float currentFreezerTemp := -50.0; // default freezer temperature;
	boolean flag := false; //When using the random variable we either decrease or
	//increase the current freezer temperature, using this variable we set the turns;

	action onload() {
		log Message.LOADED_FREEZER_SIMULATOR at INFO;
		freeze();
	}
	
	action freeze(){
		listener listen := on all wait (3.0){
			float randomTemp := getRandomTemp();	
			currentFreezerTemp := (currentFreezerTemp + randomTemp);
			send FreezerTemperature(currentFreezerTemp) to Channel.FREEZE;
			log "Simulation Freezer temp: " + currentFreezerTemp.toString() at INFO;

		}
	}
	
	action getRandomTemp() returns float{
		float randomTemp := (FreezerTemp.RANDOM_FLUCTUATION_NUMBER).rand();
		// below = take turns adding -> subtracting random values; 
		if flag {
			randomTemp := -randomTemp;
			flag := false;
		}else{
			flag := true;
		}
		return randomTemp;
	}
	
}
 00000056 C:\Users\y508970\workspace105\CoffeeFactoryDataSimulator\monitors\FreezerSimulator.mon
MONF 00000ae2 
event ColorTrack{
	float currentBeanVolt;
}

event DrumTemperature{
	float currentDrumTemperature;
}

/** This monitor is responsible for ...  */

monitor RoastDrumSimulator {

	integer beanIllustrator := 1; //parses the number so the program can display the actual color of the bean in a range from 1 to 100; Where 1 is green and very black is 100;
	integer currentBeanTemp := 0; // average temp;

	float currentDrumTemp := preheatDrum(); // default temp in drum before roasting is just below 200, e.g. 190;
	float currentBeanVolt := BeanColorVolt.MAXIMUM; 
	
	boolean highRoastTemp := false; // used as a gate to decrease the temp;
	boolean lowRoastTemp := true; // used as a gate to increase the temp;
	
	action onload() {
		log Message.LOADED_ROAST_SIMULATOR at INFO;
		initialize();
	}

	action initialize(){
			heatDrum();
			colorTrack();
	}
	
	/** 
	@return ...
	*/
	action preheatDrum() returns float{
		return (Temperature.PREHEAT_NUMBER).rand() + BeanTemp.PALE;
	}
	
	/** 
		...
	*/
	action heatDrum(){		
		listener listen := on all wait (2.0){
			float randomTemp := (BeanRandom.TEMP_INCREMENTER).rand();				
			currentDrumTemp := (currentDrumTemp + randomTemp);
			send DrumTemperature(currentDrumTemp) to Channel.ROAST;
		}
	}	
	
	/** 
		....
	*/
	action colorTrack(){
		listener listen := on all wait (1.0){
			float randomVoltIncrease := (BeanTracker.COLOR_CHANGER).rand(); // the beans spin while in the drum, therefore their temperature might differ slightly. Plus, making the graph more realistic;
			float gate := (BeanRandom.GATE_BOUND).rand();
			integer beanColorIllustrator := getBeanIllustrator(currentBeanVolt);

			implementBeanVolt(gate, randomVoltIncrease);
			send ColorTrack(currentBeanVolt) to Channel.ROAST;
		}
	}
	
	/** 
	@param gate ...
	@param randomVoltIncrease ...
	*/
	action implementBeanVolt(float gate, float randomVoltIncrease){
		if gate <= BeanTracker.COLOR_GATE_ENTRY {
			currentBeanVolt := currentBeanVolt + randomVoltIncrease;
		}else{
			currentBeanVolt := currentBeanVolt - BeanTracker.COLOR_CHANGER; // 0-100 Volts DC; 280 maximum temp in drum -> 280/100 = 2.8; Therefore, 2.8 decrease per degree celsius;
		}
	}
	
	/** 
	@param beanVolt ...
	@return ....
		formula: the color scheme graph contains half the range the beanvolt has
		(i.e. BeanVolt starts at 100 and goes down to 0, colorScheme starts at 0 and goes up to 50).
		Hence, get half of bean volt and remove 50 since the colorScheme operates in the 0-50 range;
	*/
	action getBeanIllustrator(float beanVolt) returns integer {
		return (getHalf(beanVolt) - ColorScheme.SIZE).abs(); 
	}
	
	action getHalf(float value) returns integer{
		return value.floor() / Divider.BY_HALF;
	}
}
  00000054 C:\Users\y508970\workspace105\CoffeeFactoryDataSimulator\monitors\RoastSimulator.mon
TIME 0000000e 1568124174.3,1
CONN 0000003c 6735042035583076704:6733353194312747360 from 127.0.0.1:15903
DISC 0000003c 1907214234774601728:1980451969446313984 from 127.0.0.1:50571
TIME 0000000e 1568124175.3,1
TIME 0000000e 1568124176.3,1
TIME 0000000e 1568124177.3,1
TIME 0000000e 1568124178.3,1
TIME 0000000e 1568124179.3,1
TIME 0000000e 1568124180.3,1
TIME 0000000e 1568124181.3,1
TIME 0000000e 1568124182.3,1
TIME 0000000e 1568124183.3,1
TIME 0000000e 1568124184.3,1
TIME 0000000e 1568124185.3,1
TIME 0000000e 1568124186.3,1
TIME 0000000e 1568124187.3,1
TIME 0000000e 1568124188.3,1
TIME 0000000e 1568124189.3,1
TIME 0000000e 1568124190.3,1
TIME 0000000e 1568124191.3,1
TIME 0000000e 1568124192.3,1
TIME 0000000e 1568124193.3,1
TIME 0000000e 1568124194.3,1
TIME 0000000e 1568124195.3,1
TIME 0000000e 1568124196.3,1
TIME 0000000e 1568124197.3,1
TIME 0000000e 1568124198.3,1
TIME 0000000e 1568124199.3,1
TIME 0000000e 1568124200.3,1
TIME 0000000e 1568124201.3,1
TIME 0000000e 1568124202.3,1
TIME 0000000e 1568124203.3,1
TIME 0000000e 1568124204.3,1
TIME 0000000e 1568124205.3,1
TIME 0000000e 1568124206.3,1
TIME 0000000e 1568124207.3,1
TIME 0000000e 1568124208.3,1
TIME 0000000e 1568124209.3,1
TIME 0000000e 1568124210.3,1
TIME 0000000e 1568124211.3,1
TIME 0000000e 1568124212.3,1
TIME 0000000e 1568124213.3,1
TIME 0000000e 1568124214.3,1
TIME 0000000e 1568124215.3,1
TIME 0000000e 1568124216.3,1
TIME 0000000e 1568124217.3,1
TIME 0000000e 1568124218.3,1
TIME 0000000e 1568124219.3,1
TIME 0000000e 1568124220.3,1
TIME 0000000e 1568124221.3,1
TIME 0000000e 1568124222.3,1
TIME 0000000e 1568124223.3,1
TIME 0000000e 1568124224.3,1
TIME 0000000e 1568124225.3,1
TIME 0000000e 1568124226.3,1
TIME 0000000e 1568124227.3,1
TIME 0000000e 1568124228.3,1
TIME 0000000e 1568124229.3,1
TIME 0000000e 1568124230.3,1
TIME 0000000e 1568124231.3,1
TIME 0000000e 1568124232.3,1
TIME 0000000e 1568124233.3,1
TIME 0000000e 1568124234.3,1
TIME 0000000e 1568124235.3,1
TIME 0000000e 1568124236.3,1
TIME 0000000e 1568124237.3,1
TIME 0000000e 1568124238.3,1
TIME 0000000e 1568124239.3,1
TIME 0000000e 1568124240.3,1
TIME 0000000e 1568124241.3,1
TIME 0000000e 1568124242.3,1
TIME 0000000e 1568124243.3,1
TIME 0000000e 1568124244.3,1
TIME 0000000e 1568124245.3,1
TIME 0000000e 1568124246.3,1
TIME 0000000e 1568124247.3,1
TIME 0000000e 1568124248.3,1
TIME 0000000e 1568124249.3,1
TIME 0000000e 1568124250.3,1
TIME 0000000e 1568124251.3,1
TIME 0000000e 1568124252.3,1
TIME 0000000e 1568124253.3,1
TIME 0000000e 1568124254.3,1
TIME 0000000e 1568124255.3,1
TIME 0000000e 1568124256.3,1
TIME 0000000e 1568124257.3,1
TIME 0000000e 1568124258.3,1
TIME 0000000e 1568124259.3,1
TIME 0000000e 1568124260.3,1
TIME 0000000e 1568124261.3,1
TIME 0000000e 1568124262.3,1
TIME 0000000e 1568124263.3,1
TIME 0000000e 1568124264.3,1
TIME 0000000e 1568124265.3,1
TIME 0000000e 1568124266.3,1
TIME 0000000e 1568124267.3,1
TIME 0000000e 1568124268.3,1
TIME 0000000e 1568124269.3,1
TIME 0000000e 1568124270.3,1
TIME 0000000e 1568124271.3,1
TIME 0000000e 1568124272.3,1
TIME 0000000e 1568124273.3,1
TIME 0000000e 1568124274.3,1
TIME 0000000e 1568124275.3,1
TIME 0000000e 1568124276.3,1
TIME 0000000e 1568124277.3,1
TIME 0000000e 1568124278.3,1
TIME 0000000e 1568124279.3,1
TIME 0000000e 1568124280.3,1
TIME 0000000e 1568124281.3,1
TIME 0000000e 1568124282.3,1
TIME 0000000e 1568124283.3,1
TIME 0000000e 1568124284.3,1
TIME 0000000e 1568124285.3,1
TIME 0000000e 1568124286.3,1
TIME 0000000e 1568124287.3,1
TIME 0000000e 1568124288.3,1
TIME 0000000e 1568124289.3,1
TIME 0000000e 1568124290.3,1
TIME 0000000e 1568124291.3,1
TIME 0000000e 1568124292.3,1
TIME 0000000e 1568124293.3,1
TIME 0000000e 1568124294.3,1
TIME 0000000e 1568124295.3,1
TIME 0000000e 1568124296.3,1
TIME 0000000e 1568124297.3,1
TIME 0000000e 1568124298.3,1
TIME 0000000e 1568124299.3,1
TIME 0000000e 1568124300.3,1
TIME 0000000e 1568124301.3,1
TIME 0000000e 1568124302.3,1
TIME 0000000e 1568124303.3,1
TIME 0000000e 1568124304.3,1
TIME 0000000e 1568124305.3,1
TIME 0000000e 1568124306.3,1
TIME 0000000e 1568124307.3,1
TIME 0000000e 1568124308.3,1
TIME 0000000e 1568124309.3,1
TIME 0000000e 1568124310.3,1
TIME 0000000e 1568124311.3,1
TIME 0000000e 1568124312.3,1
TIME 0000000e 1568124313.3,1
TIME 0000000e 1568124314.3,1
TIME 0000000e 1568124315.3,1
TIME 0000000e 1568124316.3,1
TIME 0000000e 1568124317.3,1
TIME 0000000e 1568124318.3,1
TIME 0000000e 1568124319.3,1
TIME 0000000e 1568124320.3,1
TIME 0000000e 1568124321.3,1
TIME 0000000e 1568124322.3,1
TIME 0000000e 1568124323.3,1
TIME 0000000e 1568124324.3,1
TIME 0000000e 1568124325.3,1
TIME 0000000e 1568124326.3,1
TIME 0000000e 1568124327.3,1
TIME 0000000e 1568124328.3,1
TIME 0000000e 1568124329.3,1
TIME 0000000e 1568124330.3,1
TIME 0000000e 1568124331.3,1
TIME 0000000e 1568124332.3,1
TIME 0000000e 1568124333.3,1
TIME 0000000e 1568124334.3,1
TIME 0000000e 1568124335.3,1
TIME 0000000e 1568124336.3,1
TIME 0000000e 1568124337.3,1
TIME 0000000e 1568124338.3,1
TIME 0000000e 1568124339.3,1
TIME 0000000e 1568124340.3,1
TIME 0000000e 1568124341.3,1
TIME 0000000e 1568124342.3,1
TIME 0000000e 1568124343.3,1
TIME 0000000e 1568124344.3,1
TIME 0000000e 1568124345.3,1
TIME 0000000e 1568124346.3,1
TIME 0000000e 1568124347.3,1
TIME 0000000e 1568124348.3,1
TIME 0000000e 1568124349.3,1
TIME 0000000e 1568124350.3,1
TIME 0000000e 1568124351.3,1
TIME 0000000e 1568124352.3,1
TIME 0000000e 1568124353.3,1
TIME 0000000e 1568124354.3,1
TIME 0000000e 1568124355.3,1
TIME 0000000e 1568124356.3,1
TIME 0000000e 1568124357.3,1
TIME 0000000e 1568124358.3,1
TIME 0000000e 1568124359.3,1
TIME 0000000e 1568124360.3,1
TIME 0000000e 1568124361.3,1
TIME 0000000e 1568124362.3,1
TIME 0000000e 1568124363.3,1
TIME 0000000e 1568124364.3,1
TIME 0000000e 1568124365.3,1
TIME 0000000e 1568124366.3,1
TIME 0000000e 1568124367.3,1
TIME 0000000e 1568124368.3,1
TIME 0000000e 1568124369.3,1
TIME 0000000e 1568124370.3,1
TIME 0000000e 1568124371.3,1
TIME 0000000e 1568124372.3,1
TIME 0000000e 1568124373.3,1
TIME 0000000e 1568124374.3,1
TIME 0000000e 1568124375.3,1
TIME 0000000e 1568124376.3,1
TIME 0000000e 1568124377.3,1
TIME 0000000e 1568124378.3,1
TIME 0000000e 1568124379.3,1
TIME 0000000e 1568124380.3,1
TIME 0000000e 1568124381.3,1
TIME 0000000e 1568124382.3,1
TIME 0000000e 1568124383.3,1
TIME 0000000e 1568124384.3,1
TIME 0000000e 1568124385.3,1
TIME 0000000e 1568124386.3,1
TIME 0000000e 1568124387.3,1
TIME 0000000e 1568124388.3,1
TIME 0000000e 1568124389.3,1
TIME 0000000e 1568124390.3,1
TIME 0000000e 1568124391.3,1
TIME 0000000e 1568124392.3,1
TIME 0000000e 1568124393.3,1
TIME 0000000e 1568124394.3,1
TIME 0000000e 1568124395.3,1
TIME 0000000e 1568124396.3,1
TIME 0000000e 1568124397.3,1
TIME 0000000e 1568124398.3,1
TIME 0000000e 1568124399.3,1
TIME 0000000e 1568124400.3,1
TIME 0000000e 1568124401.3,1
TIME 0000000e 1568124402.3,1
TIME 0000000e 1568124403.3,1
TIME 0000000e 1568124404.3,1
TIME 0000000e 1568124405.3,1
TIME 0000000e 1568124406.3,1
TIME 0000000e 1568124407.3,1
TIME 0000000e 1568124408.3,1
TIME 0000000e 1568124409.3,1
TIME 0000000e 1568124410.3,1
TIME 0000000e 1568124411.3,1
TIME 0000000e 1568124412.3,1
TIME 0000000e 1568124413.3,1
TIME 0000000e 1568124414.3,1
TIME 0000000e 1568124415.3,1
TIME 0000000e 1568124416.3,1
TIME 0000000e 1568124417.3,1
TIME 0000000e 1568124418.3,1
TIME 0000000e 1568124419.3,1
TIME 0000000e 1568124420.3,1
TIME 0000000e 1568124421.3,1
TIME 0000000e 1568124422.3,1
TIME 0000000e 1568124423.3,1
TIME 0000000e 1568124424.3,1
TIME 0000000e 1568124425.3,1
TIME 0000000e 1568124426.3,1
TIME 0000000e 1568124427.3,1
TIME 0000000e 1568124428.3,1
TIME 0000000e 1568124429.3,1
TIME 0000000e 1568124430.3,1
TIME 0000000e 1568124431.3,1
TIME 0000000e 1568124432.3,1
TIME 0000000e 1568124433.3,1
TIME 0000000e 1568124434.3,1
TIME 0000000e 1568124435.3,1
TIME 0000000e 1568124436.3,1
TIME 0000000e 1568124437.3,1
TIME 0000000e 1568124438.3,1
TIME 0000000e 1568124439.3,1
TIME 0000000e 1568124440.3,1
TIME 0000000e 1568124441.3,1
TIME 0000000e 1568124442.3,1
TIME 0000000e 1568124443.3,1
TIME 0000000e 1568124444.3,1
TIME 0000000e 1568124445.3,1
TIME 0000000e 1568124446.3,1
TIME 0000000e 1568124447.3,1
TIME 0000000e 1568124448.3,1
TIME 0000000e 1568124449.3,1
TIME 0000000e 1568124450.3,1
TIME 0000000e 1568124451.3,1
TIME 0000000e 1568124452.3,1
TIME 0000000e 1568124453.3,1
TIME 0000000e 1568124454.3,1
TIME 0000000e 1568124455.3,1
TIME 0000000e 1568124456.3,1
TIME 0000000e 1568124457.3,1
TIME 0000000e 1568124458.3,1
DISC 0000003c 6735042035583076704:6733353194312747360 from 127.0.0.1:15903
TIME 0000000e 1568124459.3,1
DISC 0000003c 6735042030941817184:6734760560260073824 from 127.0.0.1:50574
