VERS 00000001 5
HEAD 0000131e <?xml version="1.0"?>
<?xml-stylesheet type="text/xsl" href="/resources/transform.xslt"?><header><componentName>correlator</componentName><version>10.5.0.0.357639</version><build>rel/10.5.0.x@357639</build><buildPlatform>amd64-win</buildPlatform><platform>Windows 10 Enterprise</platform><cputype>GenuineIntel family 6 model 14 stepping 3 Intel(R) Core(TM) i7-6600U CPU @ 2.60GHz</cputype><cpus name="cpus">4.00</cpus><javaEnabled>true</javaEnabled><replayLogMode>inputLog</replayLogMode><args><arg>C:\dev\apama_win_full_latest\Apama\bin\correlator.exe</arg><arg>--config</arg><arg>C:\Users\y508970\workspace105\CoffeeFactoryDataSimulator\config\CorrelatorConfig.yaml</arg><arg>--port</arg><arg>15904</arg><arg>--loglevel</arg><arg>INFO</arg><arg>--name</arg><arg>Apama Designer Correlator for CoffeeFactoryDataSimulator(CoffeeFactoryDataSimulator:Correlator2)</arg><arg>-j</arg><arg>--inputLog</arg><arg>logs/Correlator2_${START_TIME}_${ID}.input.log</arg></args><environment><variable>ALLUSERSPROFILE=C:\ProgramData</variable><variable>APAMA_HOME=C:\dev\apama_win_full_latest\Apama</variable><variable>APAMA_WORK=C:\Users\Public\SoftwareAG\ApamaWork_10.5</variable><variable>APPDATA=C:\Users\y508970\AppData\Roaming</variable><variable>COMMONPROGRAMFILES=C:\Program Files\Common Files</variable><variable>COMMONPROGRAMFILES(X86)=C:\Program Files (x86)\Common Files</variable><variable>COMMONPROGRAMW6432=C:\Program Files\Common Files</variable><variable>COMPUTERNAME=SAG-98V9PF2</variable><variable>COMSPEC=C:\Windows\system32\cmd.exe</variable><variable>DEFLOGDIR=C:\ProgramData\McAfee\Endpoint Security\Logs</variable><variable>DRIVERDATA=C:\Windows\System32\Drivers\DriverData</variable><variable>EMPIRUMSERVER=cukuni02.eur.ad.sag</variable><variable>EMPIRUMSERVICEPARTITION=0</variable><variable>EMPSRVLONG=cukuni02.eur.ad.sag</variable><variable>HOMEDRIVE=C:</variable><variable>HOMEPATH=\Users\y508970</variable><variable>LOCALAPPDATA=C:\Users\y508970\AppData\Local</variable><variable>LOGONSERVER=\\CUKDC85</variable><variable>NUMBER_OF_PROCESSORS=4</variable><variable>ONEDRIVE=C:\Users\y508970\OneDrive - Software AG</variable><variable>ONEDRIVECOMMERCIAL=C:\Users\y508970\OneDrive - Software AG</variable><variable>OS=Windows_NT</variable><variable>PATH=C:\dev\apama_win_full_latest\Apama\..\jvm\jvm\jre\bin\server;C:\dev\apama_win_full_latest\Apama\..\jvm\jvm\jre\bin;C:\dev\apama_win_full_latest\Apama\bin;C:\dev\apama_win_full_latest\Apama\..\common\security\openssl\bin;C:\Users\Public\SoftwareAG\ApamaWork_10.5\lib;C:\dev\apama_win_full_latest\Apama\..\jvm\jvm\jre\bin;C:\dev\apama_win_full_latest\Apama\..\jvm\jvm\jre\bin\server;C:\dev\apama_win_full_latest\Apama\..\UniversalMessaging\cplus\lib\x86_64;C:\dev\apama_win_full_latest\Apama\bin;C:\Windows\system32;C:\Windows;C:\Windows\System32\Wbem;C:\Windows\System32\WindowsPowerShell\v1.0\;C:\Windows\System32\OpenSSH\;C:\Program Files\Intel\WiFi\bin\;C:\Program Files\Common Files\Intel\WirelessCommon\;C:\Program Files (x86)\Intel\Intel(R) Management Engine Components\DAL;C:\Program Files\Intel\Intel(R) Management Engine Components\DAL;C:\Program Files\PuTTY\;C:\Program Files\SlikSvn\bin;C:\Program Files\dotnet\;C:\Program Files\Microsoft SQL Server\130\Tools\Binn\;C:\Program Files\TortoiseSVN\bin;C:\Program Files\TortoiseGit\bin;C:\Users\y508970\AppData\Local\Microsoft\WindowsApps;C:\Users\y508970\AppData\Local\Programs\Git\cmd;C:\Users\y508970\AppData\Local\GitHubDesktop\bin</variable><variable>PATHEXT=.COM;.EXE;.BAT;.CMD;.VBS;.VBE;.JS;.JSE;.WSF;.WSH;.MSC</variable><variable>PROCESSOR_ARCHITECTURE=AMD64</variable><variable>PROCESSOR_IDENTIFIER=Intel64 Family 6 Model 78 Stepping 3, GenuineIntel</variable><variable>PROCESSOR_LEVEL=6</variable><variable>PROCESSOR_REVISION=4e03</variable><variable>PROGRAMDATA=C:\ProgramData</variable><variable>PROGRAMFILES=C:\Program Files</variable><variable>PROGRAMFILES(X86)=C:\Program Files (x86)</variable><variable>PROGRAMW6432=C:\Program Files</variable><variable>PROMPT=$P$G</variable><variable>PSMODULEPATH=C:\Program Files\WindowsPowerShell\Modules;C:\Windows\system32\WindowsPowerShell\v1.0\Modules;C:\Program Files\Barracuda\Network Access Client\Modules</variable><variable>PUBLIC=C:\Users\Public</variable><variable>SESSIONNAME=Console</variable><variable>SSL_CERT_FILE=C:\dev\apama_win_full_latest\Apama\..\common\security\openssl\cert.pem</variable><variable>SYSTEMDRIVE=C:</variable><variable>SYSTEMROOT=C:\Windows</variable><variable>TEMP=C:\Users\y508970\AppData\Local\Temp</variable><variable>TMP=C:\Users\y508970\AppData\Local\Temp</variable><variable>USERDNSDOMAIN=EUR.AD.SAG</variable><variable>USERDOMAIN=EUR</variable><variable>USERDOMAIN_ROAMINGPROFILE=EUR</variable><variable>USERNAME=y508970</variable><variable>USERPROFILE=C:\Users\y508970</variable><variable>WINDIR=C:\Windows</variable></environment><version>10.5.0.0.357639</version></header>
YAML 000005c5 ###############################################################################
# $Copyright (c) 2016 Software AG, Darmstadt, Germany and/or Software AG USA Inc., Reston, VA, USA, and/or its subsidiaries and/or its affiliates and/or their licensors.$
# Use, reproduction, transfer, publication or disclosure is prohibited except as specifically provided for in your License Agreement with Software AG
###############################################################################

#To set the default log file and level for an EPL package, monitor, or event, specify
# logging details in the eplLogging section of the YAML configuration file.
#For example:
#eplLogging:
#  com.myCompany.Client:
#    file: apama/Client.log
#    level: DEBUG
#  com.myCompany.Internal: { level: ERROR }

engineConnect:
    - sourceHost: localhost
      sourcePort: 15903

      channels:
        - roastSimulatorChannel
        - extractorSimulatorChannel
        - freezeSimulatorChannel
        - freezeDryerSimulatorChannel

      mode: parallel
      disconnectIfSlow: true

#See the information on setting log files and log levels in a YAML configuration file in the documentation for more
# information about the supported options.
#To enable use of this file when you launch this project from Designer, edit the project's run/launch configuration,
#open the correlator, and tick the "Configuration" checkbox next to the textbox that names this .yaml file.
 00000055 C:\Users\y508970\workspace105\CoffeeFactoryDataSimulator\config\CorrelatorConfig.yaml
RAND 00000009 531257778
TIME 0000000f 1568194322.58,1
CONN 0000003c 6735343319158933856:6735624802725579104 from 127.0.0.1:62344
CONN 0000003c 2280192489005842432:2281742852290379776 from 127.0.0.1:62349
TIME 0000000e 1568194323.7,1
MONF 0000145f 
/** This event consists of events full of constants which are used in the RoastDrum.mon file */

event BeanColor{
	constant integer VERY_LIGHT := 90;
	constant integer LIGHT := 80;
	constant integer YELLOW := 70;
	constant integer BROWN := 60;
	constant integer VERY_BROWN := 40;
	constant integer BLACK := 20;
}

event AlertType{
	constant integer IMMINENT_FIRE := 1;
	constant integer FIRST_CRACK := 2;
	constant integer BROWN_STAGE := 3;
	constant integer FULL_CITY := 4;
	constant integer VIENA_COFFEE := 5;
	constant integer FULL_FRENCH := 6;
}

event BeanColorVolt{
	constant float MAXIMUM := 100.0; // = 10Volt DC -> green bean;
	constant float MINIMUM := 10.0; // = 1Volt DC -> extremely dark black bean;
}

event BeanTemp{
	// ALL values below are temperatures in celsius.
	//The names of the constants represent the color of the beans at the specific temperatures;
	constant float PALE := 131.0;
	constant integer LIGHT_BROWN := 198;
	constant integer MEDIUM_LIGHT_BROWN := 207;
	constant integer FULL_MEDIUM := 218;
	constant integer MEDIUM_DARK_BROWN := 223;
	constant integer DARK_BROWN := 229;
	constant integer VERY_DARK := 243;
	
}

event FreezerTemp{
	constant float RANDOM_FLUCTUATION_NUMBER := 1.5;
}

event FreezerDryer{
	constant float RANDOM_FLUCTUATION_NUMBER := 1.9;
	constant float MINIMUM_MOISTURE := 0.0;
}

event UserStatus{
	//The values represent the names of the queries that are passed to Prometheus
	//from which Grafana request them and uses their data;
	//Variables below are used in RoastDrum.mon
	constant string DRUM := "drum";
	constant string BEAN_COLOR := "beanColor";
	constant string BEAN_ILLUSTRATOR := "beanIllustrator";
	constant string ALERT := "alert";
	
	//Variables below are used in Extractor.mon
	constant string CAFFEINE := "caffeine";
	constant string VOLATILE_OILS := "volatileOils";
	constant string ORGANIC_ACIDS := "organicAcids";
	constant string EXTRACTOR_TEMP := "extractorTemp";
	constant string COFFEE_TO_WATER_RATIO := "coffeeToWater";
	
	constant string FREEZER_TEMP := "freezerTemp";
	
	constant string MOISTURE := "moisture";
	constant string VACUUM := "vacuum";
	constant string FREEZER_DRYER_TEMP := "freezerDryerTemp";
}

event Channel{
	constant string ROAST := "roastChannel";
	constant string EXTRACTOR := "extractorChannel";
	constant string FREEZE := "freezeChannel";
	constant string FREEZE_DRYER := "freezeDryerChannel";
	
	constant string ROAST_SIMULATOR := "roastSimulatorChannel";
	constant string EXTRACTOR_SIMULATOR := "extractorSimulatorChannel";
    constant string FREEZER_SIMULATOR := "freezeSimulatorChannel";
    constant string FREEZE_DRYER_SIMULATOR := "freezeDryerSimulatorChannel";

}

event Caffeine{
	// default values used to increase/decrease the height/length of the caffeine graph;
	constant float GRAPH_HEIGHT := 7.7;
	constant float GRAPH_LENGTH := 0.188;
}

event VolatileOils{
	// default values used to increase/decrease the height/length of the volatile oils graph;
	constant float GRAPH_HEIGHT := 5.19;
	constant float GRAPH_LENGTH := 0.0415;
}

event OrganicAcids{
	// default values used to increase/decrease the height/length of the organic graph;
	constant float GRAPH_HEIGHT := 3.11;
	constant float GRAPH_LENGTH := 0.0197;
}

event Math{
	constant float CUBED := 3.0;
	constant float PLANCK_FORMULA_SUBTRACTOR := -1.0; // bl
}

event Message{
	constant string LOADED_ROAST_SIMULATOR := "Loaded monitor RoastSimulator";
	constant string LOADED_EXTRACT_SIMULATOR := "Loaded monitor ExtractorSimulator";
	constant string LOADED_FREEZER_SIMULATOR := "Loaded monitor FreezerSimulator";
	constant string LOADED_FREEZE_DRYER_SIMULATOR := "Loaded monitor FreezerDryerSimulator";
}

event Time{
	constant float ADD_SECOND := 1.0;
}

event ExtractionBounds{ // bounds within the graph
	constant float MAXIMUM := 110.0;
	constant float MINIMUM := 0.0;
}

event Temperature{
	constant float PREHEAT_NUMBER := 13.1; //A random number; The random number has to be lower than 20 and higher than 10;
	constant float DRUM_MINIMUM := 0.0;
	constant float IMMINENT_FIRE := 258.0; // temperature at which the beans will start going on fire;
	
	constant float EXTRACTOR_INITIAL := 140.0; // random number between 130 and 150;
	//Has to differ from the starting drum temp in RoastDrum because it looks better on Grafana;
	constant float EXTRACTOR_PREHEAT := 12.1;  //A random number; The random number has to be lower than 20 and higher than 10;
	
	constant float FREEZER_MAX := -60.0;
	constant float FREEZER_MIN := -20.0;
}

event ColorScheme{
	constant integer SIZE := 50; // the size of the color scheme graph on Grafana that is displaying the current color of the beans;
}

event Divider{
	constant integer BY_HALF := 2;
}

event BeanTracker{
	constant float COLOR_CHANGER := 0.9; // 
	constant float COLOR_GATE_ENTRY := 0.4; // representing the percent (e.g. 0.4 = 40%);
}

event BeanRandom{
	constant float TEMP_INCREMENTER := 1.8; // maximum random value;
	constant float GATE_BOUND := 1.0; // representing the maximum percent value(e.g. 1.0 = 100%, 0.9 = 90%);
}
 00000064 C:\Users\y508970\workspace105\CoffeeFactoryDataSimulator\eventdefinitions\CoffeeFactoryConstants.mon
MONF 00000cec 
/** This monitor is responsible for ...  */

event CaffeineEvent{
	float currentCaffeine;
}

event VolatileOilsEvent{
	float currentVolatileOils;
}

event OrganicAcidsEvent{
	float currentOrganicAcids;
}

event ExtractorTemperature{
	float currentTemperature;
}

monitor ExtractorSimulator {

	float currentCaffeine := 1.0;
	float currentVolatileOils := 3.0;
	float currentOrganicAcids := 8.0;
	float currentTemp := preheatExtractor();
	float currentCoffeeToWaterRatio := 0.0;
	
	boolean highExtractionTemp := false; // used as a gate to decrease the temp;
	boolean lowExtractionTemp := true; // used as a gate to increase the temp;
	
	float caffeineTimeCounterSecs := 0.0;
	float oilsTimeCounterSecs := 0.0;
	float acidsTimeCounterSecs := 0.0;
	
	//Side value => Amount of compound (Unit) - A
	
	action onload() {
		log Message.LOADED_EXTRACT_SIMULATOR at INFO;
		initialize();
	}

	action initialize(){
		implementExtractorTemp();
		extractAll();
	}

	action extractAll(){
		extractCaffeine();
		extractVolatileOils();
		extractOrganicAcids();
	}

	/** 
	...
	*/
	action extractCaffeine(){
		listener listen := on all wait (1.0){
			currentCaffeine := blackBodyFormula(caffeineTimeCounterSecs, Caffeine.GRAPH_HEIGHT, Caffeine.GRAPH_LENGTH);  
			send CaffeineEvent(currentCaffeine) to Channel.EXTRACTOR; 
			caffeineTimeCounterSecs := caffeineTimeCounterSecs + Time.ADD_SECOND;
		}
	}

	/** 
	...
	*/
	action extractVolatileOils(){
		listener listen := on all wait (1.0){		
			currentVolatileOils := blackBodyFormula(oilsTimeCounterSecs, VolatileOils.GRAPH_HEIGHT, VolatileOils.GRAPH_LENGTH);	
			send VolatileOilsEvent(currentVolatileOils) to Channel.EXTRACTOR; 
			oilsTimeCounterSecs := oilsTimeCounterSecs + Time.ADD_SECOND;
		}
	}
	
	/** 
	...
	*/	
	action extractOrganicAcids(){
		listener listen := on all wait (1.0){
			currentOrganicAcids := blackBodyFormula(acidsTimeCounterSecs, OrganicAcids.GRAPH_HEIGHT, OrganicAcids.GRAPH_LENGTH); 
			send OrganicAcidsEvent(currentOrganicAcids) to Channel.EXTRACTOR; 
			acidsTimeCounterSecs := acidsTimeCounterSecs + Time.ADD_SECOND;
		}
	}
	
	/** 
		Increases/decreases the temperature in the extractor drum;
		
	*/
	action implementExtractorTemp(){
		listener listen := on all wait (2.0){
			float randomTempIncrementor := (2.0).rand(); // TODO FIX MAGIC NUMBER;
			currentTemp := currentTemp + randomTempIncrementor;
			send ExtractorTemperature(currentTemp) to Channel.EXTRACTOR; 
		}
	}
	
	/** 
	@param time = the time that has passed in seconds;
	@param height = increase value for higher function and decrease for lower; 7.7 is a random default value;
	@param length = increase to shrink function, decrease to expand function; 0.188 is a random default value;
	@return Max Planck's formula for Black-body radition
	*/
	action blackBodyFormula(float time, float height, float length) returns float{
		return (height * (length * time).pow(Math.CUBED)) / ( (float.E).pow(length * time) - Math.PLANCK_FORMULA_SUBTRACTOR);
	}
	
	/** 
	...
	*/
	action updateCoffeeToWaterRatio(){	
		//send ... to ...
	}
	
	action preheatExtractor() returns float{
		return (Temperature.EXTRACTOR_PREHEAT).rand() + Temperature.EXTRACTOR_INITIAL;
	}
	
}
 00000058 C:\Users\y508970\workspace105\CoffeeFactoryDataSimulator\monitors\ExtractorSimulator.mon
MONF 0000083d 
/** This monitor is responsible for ...  */

event FreezerDryerMoisture{
	float currentMoisture;
}

event FreezerDryerTemp{
	float currentTemp;
}

event FreezerDryerVacuum{
	float currentVacuum;
}

event Alert{
	string anAlert;
}


monitor FreezeDryerSimulator {

	float currentMoisture := 100.0;
	float currentTemp := 60.0;
	float currentVacuum := 150.0;
		
	boolean tempGate := true;
	boolean vacuumGate := true;
		
	action onload() {
		listenning();
		initialize();
	}

	action initialize(){
		log Message.LOADED_FREEZE_DRYER_SIMULATOR at INFO;
		moistureEvaporating();
		implementTubeTemperature();
		implementTubeVacuum();
	}
		
	action moistureEvaporating(){
		listener listen := on all wait (2.0){
			float random := (FreezerDryer.RANDOM_FLUCTUATION_NUMBER).rand();
			currentMoisture := currentMoisture - random;
			send FreezerDryerMoisture(currentMoisture) to Channel.FREEZE_DRYER;
		}
	}
	
	action implementTubeTemperature(){
		listener listen := on all wait (3.0){
			float random := (FreezerDryer.RANDOM_FLUCTUATION_NUMBER).rand();
			currentTemp := implementFluctuation(tempGate, currentTemp, random);
			send FreezerDryerTemp(currentTemp) to Channel.FREEZE_DRYER;
		}
	}
	
	action implementTubeVacuum(){
		listener listen := on all wait (2.0){
			float random := (0.2).rand(); 
			//TODO change gate to be e.g. 0.4 and the random generator to generate a number
			// between 0.0 and 1.0, see colorTrack()
			currentVacuum := implementFluctuation(vacuumGate, currentVacuum, random);
			send FreezerDryerVacuum(currentVacuum) to Channel.FREEZE_DRYER;
		}
	}
	
	action implementFluctuation(boolean gate, float currentValue, float randomNumber) returns float{
		if gate {
			currentValue := currentValue - randomNumber;
			gate := false;
		}else{
			currentValue := currentValue + randomNumber;
			gate := true;
		}
		
		return currentValue;
	}
	
	action listenning(){
		monitor.subscribe(Channel.FREEZE_DRYER_SIMULATOR);
		on all Alert() as a{
			log "ALERT === ===== === " + a.anAlert at INFO;
		}
	}
	
	
}
 0000005a C:\Users\y508970\workspace105\CoffeeFactoryDataSimulator\monitors\FreezeDryerSimulator.mon
MONF 0000043f 
/** This monitor is responsible for ...  */

event FreezerTemperature{
	float currentFreezerTemp;
}

monitor FreezerSimulator {
	
	float currentFreezerTemp := -50.0; // default freezer temperature;
	boolean flag := false; //When using the random variable we either decrease or
	//increase the current freezer temperature, using this variable we set the turns;

	action onload() {
		log Message.LOADED_FREEZER_SIMULATOR at INFO;
		freeze();
	}
	
	action freeze(){
		listener listen := on all wait (3.0){
			float randomTemp := getRandomTemp();	
			currentFreezerTemp := (currentFreezerTemp + randomTemp);
			send FreezerTemperature(currentFreezerTemp) to Channel.FREEZE;
			log "Simulation Freezer temp: " + currentFreezerTemp.toString() at INFO;

		}
	}
	
	action getRandomTemp() returns float{
		float randomTemp := (FreezerTemp.RANDOM_FLUCTUATION_NUMBER).rand();
		// below = take turns adding -> subtracting random values; 
		if flag {
			randomTemp := -randomTemp;
			flag := false;
		}else{
			flag := true;
		}
		return randomTemp;
	}
	
}
 00000056 C:\Users\y508970\workspace105\CoffeeFactoryDataSimulator\monitors\FreezerSimulator.mon
MONF 00000ae2 
event ColorTrack{
	float currentBeanVolt;
}

event DrumTemperature{
	float currentDrumTemperature;
}

/** This monitor is responsible for ...  */

monitor RoastDrumSimulator {

	integer beanIllustrator := 1; //parses the number so the program can display the actual color of the bean in a range from 1 to 100; Where 1 is green and very black is 100;
	integer currentBeanTemp := 0; // average temp;

	float currentDrumTemp := preheatDrum(); // default temp in drum before roasting is just below 200, e.g. 190;
	float currentBeanVolt := BeanColorVolt.MAXIMUM; 
	
	boolean highRoastTemp := false; // used as a gate to decrease the temp;
	boolean lowRoastTemp := true; // used as a gate to increase the temp;
	
	action onload() {
		log Message.LOADED_ROAST_SIMULATOR at INFO;
		initialize();
	}

	action initialize(){
			heatDrum();
			colorTrack();
	}
	
	/** 
	@return ...
	*/
	action preheatDrum() returns float{
		return (Temperature.PREHEAT_NUMBER).rand() + BeanTemp.PALE;
	}
	
	/** 
		...
	*/
	action heatDrum(){		
		listener listen := on all wait (2.0){
			float randomTemp := (BeanRandom.TEMP_INCREMENTER).rand();				
			currentDrumTemp := (currentDrumTemp + randomTemp);
			send DrumTemperature(currentDrumTemp) to Channel.ROAST;
		}
	}	
	
	/** 
		....
	*/
	action colorTrack(){
		listener listen := on all wait (1.0){
			float randomVoltIncrease := (BeanTracker.COLOR_CHANGER).rand(); // the beans spin while in the drum, therefore their temperature might differ slightly. Plus, making the graph more realistic;
			float gate := (BeanRandom.GATE_BOUND).rand();
			integer beanColorIllustrator := getBeanIllustrator(currentBeanVolt);

			implementBeanVolt(gate, randomVoltIncrease);
			send ColorTrack(currentBeanVolt) to Channel.ROAST;
		}
	}
	
	/** 
	@param gate ...
	@param randomVoltIncrease ...
	*/
	action implementBeanVolt(float gate, float randomVoltIncrease){
		if gate <= BeanTracker.COLOR_GATE_ENTRY {
			currentBeanVolt := currentBeanVolt + randomVoltIncrease;
		}else{
			currentBeanVolt := currentBeanVolt - BeanTracker.COLOR_CHANGER; // 0-100 Volts DC; 280 maximum temp in drum -> 280/100 = 2.8; Therefore, 2.8 decrease per degree celsius;
		}
	}
	
	/** 
	@param beanVolt ...
	@return ....
		formula: the color scheme graph contains half the range the beanvolt has
		(i.e. BeanVolt starts at 100 and goes down to 0, colorScheme starts at 0 and goes up to 50).
		Hence, get half of bean volt and remove 50 since the colorScheme operates in the 0-50 range;
	*/
	action getBeanIllustrator(float beanVolt) returns integer {
		return (getHalf(beanVolt) - ColorScheme.SIZE).abs(); 
	}
	
	action getHalf(float value) returns integer{
		return value.floor() / Divider.BY_HALF;
	}
}
  00000054 C:\Users\y508970\workspace105\CoffeeFactoryDataSimulator\monitors\RoastSimulator.mon
TIME 0000000e 1568194324.7,1
TIME 0000000e 1568194325.1,1
CONN 0000003c 6735343331816556896:6736750715290044768 from 127.0.0.1:15903
DISC 0000003c 2280192489005842432:2281742852290379776 from 127.0.0.1:62349
TIME 0000000e 1568194325.7,1
TIME 0000000e 1568194326.7,1
TIME 0000000e 1568194327.1,1
EVNT 00000021 6735343331816556896 "",Alert("1")
TIME 0000000e 1568194327.7,1
TIME 0000000e 1568194328.7,1
TIME 0000000e 1568194329.7,1
TIME 0000000e 1568194330.7,1
TIME 0000000e 1568194331.7,1
TIME 0000000e 1568194332.7,1
TIME 0000000e 1568194333.7,1
TIME 0000000e 1568194334.7,1
TIME 0000000e 1568194335.7,1
TIME 0000000e 1568194336.7,1
TIME 0000000e 1568194337.7,1
TIME 0000000e 1568194338.7,1
TIME 0000000e 1568194339.7,1
TIME 0000000e 1568194340.7,1
TIME 0000000e 1568194341.7,1
TIME 0000000e 1568194342.7,1
TIME 0000000e 1568194343.7,1
TIME 0000000e 1568194344.7,1
TIME 0000000e 1568194345.7,1
TIME 0000000e 1568194346.7,1
TIME 0000000e 1568194347.7,1
TIME 0000000e 1568194348.7,1
TIME 0000000e 1568194349.7,1
TIME 0000000e 1568194350.7,1
TIME 0000000e 1568194351.7,1
TIME 0000000e 1568194352.7,1
TIME 0000000e 1568194353.7,1
TIME 0000000e 1568194354.7,1
TIME 0000000e 1568194355.7,1
TIME 0000000e 1568194356.7,1
TIME 0000000e 1568194357.7,1
TIME 0000000e 1568194358.7,1
TIME 0000000e 1568194359.7,1
TIME 0000000e 1568194360.7,1
TIME 0000000e 1568194361.7,1
TIME 0000000e 1568194362.7,1
TIME 0000000e 1568194363.7,1
TIME 0000000e 1568194364.7,1
TIME 0000000e 1568194365.7,1
TIME 0000000e 1568194366.7,1
TIME 0000000e 1568194367.7,1
TIME 0000000e 1568194368.7,1
TIME 0000000e 1568194369.7,1
TIME 0000000e 1568194370.7,1
TIME 0000000e 1568194371.7,1
TIME 0000000e 1568194372.7,1
TIME 0000000e 1568194373.7,1
TIME 0000000e 1568194374.7,1
TIME 0000000e 1568194375.7,1
TIME 0000000e 1568194376.7,1
TIME 0000000e 1568194377.7,1
TIME 0000000e 1568194378.7,1
TIME 0000000e 1568194379.7,1
TIME 0000000e 1568194380.7,1
TIME 0000000e 1568194381.7,1
TIME 0000000e 1568194382.7,1
TIME 0000000e 1568194383.7,1
TIME 0000000e 1568194384.7,1
TIME 0000000e 1568194385.7,1
TIME 0000000e 1568194386.7,1
TIME 0000000e 1568194387.7,1
TIME 0000000e 1568194388.7,1
TIME 0000000e 1568194389.7,1
TIME 0000000e 1568194390.7,1
TIME 0000000e 1568194391.7,1
TIME 0000000e 1568194392.7,1
TIME 0000000e 1568194393.7,1
TIME 0000000e 1568194394.7,1
TIME 0000000e 1568194395.7,1
TIME 0000000e 1568194396.7,1
TIME 0000000e 1568194397.7,1
TIME 0000000e 1568194398.7,1
TIME 0000000e 1568194399.7,1
TIME 0000000e 1568194400.7,1
TIME 0000000e 1568194401.7,1
TIME 0000000e 1568194402.7,1
TIME 0000000e 1568194403.7,1
TIME 0000000e 1568194404.7,1
TIME 0000000e 1568194405.7,1
TIME 0000000e 1568194406.7,1
TIME 0000000e 1568194407.7,1
TIME 0000000e 1568194408.7,1
TIME 0000000e 1568194409.7,1
TIME 0000000e 1568194410.7,1
TIME 0000000e 1568194411.7,1
TIME 0000000e 1568194412.7,1
TIME 0000000e 1568194413.7,1
TIME 0000000e 1568194414.7,1
TIME 0000000e 1568194415.7,1
TIME 0000000e 1568194416.7,1
TIME 0000000e 1568194417.7,1
TIME 0000000e 1568194418.7,1
TIME 0000000e 1568194419.7,1
TIME 0000000e 1568194420.7,1
TIME 0000000e 1568194421.7,1
TIME 0000000e 1568194422.7,1
TIME 0000000e 1568194423.7,1
TIME 0000000e 1568194424.7,1
TIME 0000000e 1568194425.7,1
TIME 0000000e 1568194426.7,1
TIME 0000000e 1568194427.7,1
TIME 0000000e 1568194428.7,1
TIME 0000000e 1568194429.7,1
TIME 0000000e 1568194430.7,1
TIME 0000000e 1568194431.7,1
TIME 0000000e 1568194432.7,1
TIME 0000000e 1568194433.7,1
TIME 0000000e 1568194434.7,1
TIME 0000000e 1568194435.7,1
TIME 0000000e 1568194436.7,1
TIME 0000000e 1568194437.7,1
TIME 0000000e 1568194438.7,1
TIME 0000000e 1568194439.7,1
TIME 0000000e 1568194440.7,1
TIME 0000000e 1568194441.7,1
TIME 0000000e 1568194442.7,1
TIME 0000000e 1568194443.7,1
TIME 0000000e 1568194444.7,1
TIME 0000000e 1568194445.7,1
TIME 0000000e 1568194446.7,1
TIME 0000000e 1568194447.7,1
TIME 0000000e 1568194448.7,1
TIME 0000000e 1568194449.7,1
TIME 0000000e 1568194450.7,1
TIME 0000000e 1568194451.7,1
TIME 0000000e 1568194452.7,1
TIME 0000000e 1568194453.7,1
TIME 0000000e 1568194454.7,1
TIME 0000000e 1568194455.7,1
TIME 0000000e 1568194456.7,1
TIME 0000000e 1568194457.7,1
TIME 0000000e 1568194458.7,1
TIME 0000000e 1568194459.7,1
TIME 0000000e 1568194460.7,1
TIME 0000000e 1568194461.7,1
TIME 0000000e 1568194462.7,1
TIME 0000000e 1568194463.7,1
TIME 0000000e 1568194464.7,1
TIME 0000000e 1568194465.7,1
TIME 0000000e 1568194466.7,1
TIME 0000000e 1568194467.7,1
TIME 0000000e 1568194468.7,1
TIME 0000000e 1568194469.7,1
TIME 0000000e 1568194470.7,1
TIME 0000000e 1568194471.7,1
TIME 0000000e 1568194472.7,1
TIME 0000000e 1568194473.7,1
TIME 0000000e 1568194474.7,1
TIME 0000000e 1568194475.7,1
TIME 0000000e 1568194476.7,1
TIME 0000000e 1568194477.7,1
TIME 0000000e 1568194478.7,1
TIME 0000000e 1568194479.7,1
TIME 0000000e 1568194480.7,1
TIME 0000000e 1568194481.7,1
TIME 0000000e 1568194482.7,1
TIME 0000000e 1568194483.7,1
TIME 0000000e 1568194484.7,1
TIME 0000000e 1568194485.7,1
TIME 0000000e 1568194486.7,1
TIME 0000000e 1568194487.7,1
TIME 0000000e 1568194488.7,1
TIME 0000000e 1568194489.7,1
TIME 0000000e 1568194490.7,1
TIME 0000000e 1568194491.7,1
TIME 0000000e 1568194492.7,1
TIME 0000000e 1568194493.7,1
TIME 0000000e 1568194494.7,1
TIME 0000000e 1568194495.7,1
TIME 0000000e 1568194496.7,1
TIME 0000000e 1568194497.7,1
TIME 0000000e 1568194498.7,1
TIME 0000000e 1568194499.7,1
TIME 0000000e 1568194500.7,1
TIME 0000000e 1568194501.7,1
TIME 0000000e 1568194502.7,1
TIME 0000000e 1568194503.7,1
TIME 0000000e 1568194504.7,1
TIME 0000000e 1568194505.7,1
TIME 0000000e 1568194506.7,1
TIME 0000000e 1568194507.7,1
TIME 0000000e 1568194508.7,1
TIME 0000000e 1568194509.7,1
TIME 0000000e 1568194510.7,1
TIME 0000000e 1568194511.7,1
TIME 0000000e 1568194512.7,1
TIME 0000000e 1568194513.7,1
TIME 0000000e 1568194514.7,1
TIME 0000000e 1568194515.7,1
TIME 0000000e 1568194516.7,1
TIME 0000000e 1568194517.7,1
TIME 0000000e 1568194518.7,1
TIME 0000000e 1568194519.7,1
TIME 0000000e 1568194520.7,1
TIME 0000000e 1568194521.7,1
TIME 0000000e 1568194522.7,1
TIME 0000000e 1568194523.7,1
TIME 0000000e 1568194524.7,1
TIME 0000000e 1568194525.7,1
TIME 0000000e 1568194526.7,1
TIME 0000000e 1568194527.7,1
TIME 0000000e 1568194528.7,1
TIME 0000000e 1568194529.7,1
TIME 0000000e 1568194530.7,1
TIME 0000000e 1568194531.7,1
TIME 0000000e 1568194532.7,1
TIME 0000000e 1568194533.7,1
TIME 0000000e 1568194534.7,1
TIME 0000000e 1568194535.7,1
TIME 0000000e 1568194536.7,1
TIME 0000000e 1568194537.7,1
TIME 0000000e 1568194538.7,1
TIME 0000000e 1568194539.7,1
TIME 0000000e 1568194540.7,1
TIME 0000000e 1568194541.7,1
TIME 0000000e 1568194542.7,1
TIME 0000000e 1568194543.7,1
TIME 0000000e 1568194544.7,1
TIME 0000000e 1568194545.7,1
TIME 0000000e 1568194546.7,1
TIME 0000000e 1568194547.7,1
TIME 0000000e 1568194548.7,1
TIME 0000000e 1568194549.7,1
TIME 0000000e 1568194550.7,1
TIME 0000000e 1568194551.7,1
TIME 0000000e 1568194552.7,1
TIME 0000000e 1568194553.7,1
TIME 0000000e 1568194554.7,1
TIME 0000000e 1568194555.7,1
TIME 0000000e 1568194556.7,1
TIME 0000000e 1568194557.7,1
TIME 0000000e 1568194558.7,1
TIME 0000000e 1568194559.7,1
TIME 0000000e 1568194560.7,1
TIME 0000000e 1568194561.7,1
TIME 0000000e 1568194562.7,1
TIME 0000000e 1568194563.7,1
TIME 0000000e 1568194564.7,1
TIME 0000000e 1568194565.7,1
TIME 0000000e 1568194566.7,1
TIME 0000000e 1568194567.7,1
TIME 0000000e 1568194568.7,1
TIME 0000000e 1568194569.7,1
TIME 0000000e 1568194570.7,1
TIME 0000000e 1568194571.7,1
TIME 0000000e 1568194572.7,1
TIME 0000000e 1568194573.7,1
TIME 0000000e 1568194574.7,1
TIME 0000000e 1568194575.7,1
TIME 0000000e 1568194576.7,1
TIME 0000000e 1568194577.7,1
TIME 0000000e 1568194578.7,1
TIME 0000000e 1568194579.7,1
TIME 0000000e 1568194580.7,1
TIME 0000000e 1568194581.7,1
TIME 0000000e 1568194582.7,1
TIME 0000000e 1568194583.7,1
TIME 0000000e 1568194584.7,1
TIME 0000000e 1568194585.7,1
DISC 0000003c 6735343331816556896:6736750715290044768 from 127.0.0.1:15903
TIME 0000000e 1568194586.1,1
TIME 0000000e 1568194586.7,1
TIME 0000000e 1568194587.7,1
TIME 0000000e 1568194588.7,1
TIME 0000000e 1568194589.7,1
TIME 0000000e 1568194590.7,1
DISC 0000003c 6735343319158933856:6735624802725579104 from 127.0.0.1:62344
