VERS 00000001 5
HEAD 0000131e <?xml version="1.0"?>
<?xml-stylesheet type="text/xsl" href="/resources/transform.xslt"?><header><componentName>correlator</componentName><version>10.5.0.0.357639</version><build>rel/10.5.0.x@357639</build><buildPlatform>amd64-win</buildPlatform><platform>Windows 10 Enterprise</platform><cputype>GenuineIntel family 6 model 14 stepping 3 Intel(R) Core(TM) i7-6600U CPU @ 2.60GHz</cputype><cpus name="cpus">4.00</cpus><javaEnabled>true</javaEnabled><replayLogMode>inputLog</replayLogMode><args><arg>C:\dev\apama_win_full_latest\Apama\bin\correlator.exe</arg><arg>--config</arg><arg>C:\Users\y508970\workspace105\CoffeeFactoryDataSimulator\config\CorrelatorConfig.yaml</arg><arg>--port</arg><arg>15904</arg><arg>--loglevel</arg><arg>INFO</arg><arg>--name</arg><arg>Apama Designer Correlator for CoffeeFactoryDataSimulator(CoffeeFactoryDataSimulator:Correlator2)</arg><arg>-j</arg><arg>--inputLog</arg><arg>logs/Correlator2_${START_TIME}_${ID}.input.log</arg></args><environment><variable>ALLUSERSPROFILE=C:\ProgramData</variable><variable>APAMA_HOME=C:\dev\apama_win_full_latest\Apama</variable><variable>APAMA_WORK=C:\Users\Public\SoftwareAG\ApamaWork_10.5</variable><variable>APPDATA=C:\Users\y508970\AppData\Roaming</variable><variable>COMMONPROGRAMFILES=C:\Program Files\Common Files</variable><variable>COMMONPROGRAMFILES(X86)=C:\Program Files (x86)\Common Files</variable><variable>COMMONPROGRAMW6432=C:\Program Files\Common Files</variable><variable>COMPUTERNAME=SAG-98V9PF2</variable><variable>COMSPEC=C:\Windows\system32\cmd.exe</variable><variable>DEFLOGDIR=C:\ProgramData\McAfee\Endpoint Security\Logs</variable><variable>DRIVERDATA=C:\Windows\System32\Drivers\DriverData</variable><variable>EMPIRUMSERVER=cukuni02.eur.ad.sag</variable><variable>EMPIRUMSERVICEPARTITION=0</variable><variable>EMPSRVLONG=cukuni02.eur.ad.sag</variable><variable>HOMEDRIVE=C:</variable><variable>HOMEPATH=\Users\y508970</variable><variable>LOCALAPPDATA=C:\Users\y508970\AppData\Local</variable><variable>LOGONSERVER=\\CUKDC85</variable><variable>NUMBER_OF_PROCESSORS=4</variable><variable>ONEDRIVE=C:\Users\y508970\OneDrive - Software AG</variable><variable>ONEDRIVECOMMERCIAL=C:\Users\y508970\OneDrive - Software AG</variable><variable>OS=Windows_NT</variable><variable>PATH=C:\dev\apama_win_full_latest\Apama\..\jvm\jvm\jre\bin\server;C:\dev\apama_win_full_latest\Apama\..\jvm\jvm\jre\bin;C:\dev\apama_win_full_latest\Apama\bin;C:\dev\apama_win_full_latest\Apama\..\common\security\openssl\bin;C:\Users\Public\SoftwareAG\ApamaWork_10.5\lib;C:\dev\apama_win_full_latest\Apama\..\jvm\jvm\jre\bin;C:\dev\apama_win_full_latest\Apama\..\jvm\jvm\jre\bin\server;C:\dev\apama_win_full_latest\Apama\..\UniversalMessaging\cplus\lib\x86_64;C:\dev\apama_win_full_latest\Apama\bin;C:\Windows\system32;C:\Windows;C:\Windows\System32\Wbem;C:\Windows\System32\WindowsPowerShell\v1.0\;C:\Windows\System32\OpenSSH\;C:\Program Files\Intel\WiFi\bin\;C:\Program Files\Common Files\Intel\WirelessCommon\;C:\Program Files (x86)\Intel\Intel(R) Management Engine Components\DAL;C:\Program Files\Intel\Intel(R) Management Engine Components\DAL;C:\Program Files\PuTTY\;C:\Program Files\SlikSvn\bin;C:\Program Files\dotnet\;C:\Program Files\Microsoft SQL Server\130\Tools\Binn\;C:\Program Files\TortoiseSVN\bin;C:\Program Files\TortoiseGit\bin;C:\Users\y508970\AppData\Local\Microsoft\WindowsApps;C:\Users\y508970\AppData\Local\Programs\Git\cmd;C:\Users\y508970\AppData\Local\GitHubDesktop\bin</variable><variable>PATHEXT=.COM;.EXE;.BAT;.CMD;.VBS;.VBE;.JS;.JSE;.WSF;.WSH;.MSC</variable><variable>PROCESSOR_ARCHITECTURE=AMD64</variable><variable>PROCESSOR_IDENTIFIER=Intel64 Family 6 Model 78 Stepping 3, GenuineIntel</variable><variable>PROCESSOR_LEVEL=6</variable><variable>PROCESSOR_REVISION=4e03</variable><variable>PROGRAMDATA=C:\ProgramData</variable><variable>PROGRAMFILES=C:\Program Files</variable><variable>PROGRAMFILES(X86)=C:\Program Files (x86)</variable><variable>PROGRAMW6432=C:\Program Files</variable><variable>PROMPT=$P$G</variable><variable>PSMODULEPATH=C:\Program Files\WindowsPowerShell\Modules;C:\Windows\system32\WindowsPowerShell\v1.0\Modules;C:\Program Files\Barracuda\Network Access Client\Modules</variable><variable>PUBLIC=C:\Users\Public</variable><variable>SESSIONNAME=Console</variable><variable>SSL_CERT_FILE=C:\dev\apama_win_full_latest\Apama\..\common\security\openssl\cert.pem</variable><variable>SYSTEMDRIVE=C:</variable><variable>SYSTEMROOT=C:\Windows</variable><variable>TEMP=C:\Users\y508970\AppData\Local\Temp</variable><variable>TMP=C:\Users\y508970\AppData\Local\Temp</variable><variable>USERDNSDOMAIN=EUR.AD.SAG</variable><variable>USERDOMAIN=EUR</variable><variable>USERDOMAIN_ROAMINGPROFILE=EUR</variable><variable>USERNAME=y508970</variable><variable>USERPROFILE=C:\Users\y508970</variable><variable>WINDIR=C:\Windows</variable></environment><version>10.5.0.0.357639</version></header>
YAML 000005c5 ###############################################################################
# $Copyright (c) 2016 Software AG, Darmstadt, Germany and/or Software AG USA Inc., Reston, VA, USA, and/or its subsidiaries and/or its affiliates and/or their licensors.$
# Use, reproduction, transfer, publication or disclosure is prohibited except as specifically provided for in your License Agreement with Software AG
###############################################################################

#To set the default log file and level for an EPL package, monitor, or event, specify
# logging details in the eplLogging section of the YAML configuration file.
#For example:
#eplLogging:
#  com.myCompany.Client:
#    file: apama/Client.log
#    level: DEBUG
#  com.myCompany.Internal: { level: ERROR }

engineConnect:
    - sourceHost: localhost
      sourcePort: 15903

      channels:
        - roastSimulatorChannel
        - extractorSimulatorChannel
        - freezeSimulatorChannel
        - freezeDryerSimulatorChannel

      mode: parallel
      disconnectIfSlow: true

#See the information on setting log files and log levels in a YAML configuration file in the documentation for more
# information about the supported options.
#To enable use of this file when you launch this project from Designer, edit the project's run/launch configuration,
#open the correlator, and tick the "Configuration" checkbox next to the textbox that names this .yaml file.
 00000055 C:\Users\y508970\workspace105\CoffeeFactoryDataSimulator\config\CorrelatorConfig.yaml
RAND 00000009 461521713
TIME 00000010 1568124587.145,1
CONN 0000003c 6735043805387737440:6734762343295928672 from 127.0.0.1:52654
CONN 0000003c 1907214234774601728:1982231146900029440 from 127.0.0.1:52649
TIME 0000000e 1568124588.1,1
MONF 0000145f 
/** This event consists of events full of constants which are used in the RoastDrum.mon file */

event BeanColor{
	constant integer VERY_LIGHT := 90;
	constant integer LIGHT := 80;
	constant integer YELLOW := 70;
	constant integer BROWN := 60;
	constant integer VERY_BROWN := 40;
	constant integer BLACK := 20;
}

event AlertType{
	constant integer IMMINENT_FIRE := 1;
	constant integer FIRST_CRACK := 2;
	constant integer BROWN_STAGE := 3;
	constant integer FULL_CITY := 4;
	constant integer VIENA_COFFEE := 5;
	constant integer FULL_FRENCH := 6;
}

event BeanColorVolt{
	constant float MAXIMUM := 100.0; // = 10Volt DC -> green bean;
	constant float MINIMUM := 10.0; // = 1Volt DC -> extremely dark black bean;
}

event BeanTemp{
	// ALL values below are temperatures in celsius.
	//The names of the constants represent the color of the beans at the specific temperatures;
	constant float PALE := 131.0;
	constant integer LIGHT_BROWN := 198;
	constant integer MEDIUM_LIGHT_BROWN := 207;
	constant integer FULL_MEDIUM := 218;
	constant integer MEDIUM_DARK_BROWN := 223;
	constant integer DARK_BROWN := 229;
	constant integer VERY_DARK := 243;
	
}

event FreezerTemp{
	constant float RANDOM_FLUCTUATION_NUMBER := 1.5;
}

event FreezerDryer{
	constant float RANDOM_FLUCTUATION_NUMBER := 1.9;
	constant float MINIMUM_MOISTURE := 0.0;
}

event UserStatus{
	//The values represent the names of the queries that are passed to Prometheus
	//from which Grafana request them and uses their data;
	//Variables below are used in RoastDrum.mon
	constant string DRUM := "drum";
	constant string BEAN_COLOR := "beanColor";
	constant string BEAN_ILLUSTRATOR := "beanIllustrator";
	constant string ALERT := "alert";
	
	//Variables below are used in Extractor.mon
	constant string CAFFEINE := "caffeine";
	constant string VOLATILE_OILS := "volatileOils";
	constant string ORGANIC_ACIDS := "organicAcids";
	constant string EXTRACTOR_TEMP := "extractorTemp";
	constant string COFFEE_TO_WATER_RATIO := "coffeeToWater";
	
	constant string FREEZER_TEMP := "freezerTemp";
	
	constant string MOISTURE := "moisture";
	constant string VACUUM := "vacuum";
	constant string FREEZER_DRYER_TEMP := "freezerDryerTemp";
}

event Channel{
	constant string ROAST := "roastChannel";
	constant string EXTRACTOR := "extractorChannel";
	constant string FREEZE := "freezeChannel";
	constant string FREEZE_DRYER := "freezeDryerChannel";
	
	constant string ROAST_SIMULATOR := "roastSimulatorChannel";
	constant string EXTRACTOR_SIMULATOR := "extractorSimulatorChannel";
    constant string FREEZER_SIMULATOR := "freezeSimulatorChannel";
    constant string FREEZE_DRYER_SIMULATOR := "freezeDryerSimulatorChannel";

}

event Caffeine{
	// default values used to increase/decrease the height/length of the caffeine graph;
	constant float GRAPH_HEIGHT := 7.7;
	constant float GRAPH_LENGTH := 0.188;
}

event VolatileOils{
	// default values used to increase/decrease the height/length of the volatile oils graph;
	constant float GRAPH_HEIGHT := 5.19;
	constant float GRAPH_LENGTH := 0.0415;
}

event OrganicAcids{
	// default values used to increase/decrease the height/length of the organic graph;
	constant float GRAPH_HEIGHT := 3.11;
	constant float GRAPH_LENGTH := 0.0197;
}

event Math{
	constant float CUBED := 3.0;
	constant float PLANCK_FORMULA_SUBTRACTOR := -1.0; // bl
}

event Message{
	constant string LOADED_ROAST_SIMULATOR := "Loaded monitor RoastSimulator";
	constant string LOADED_EXTRACT_SIMULATOR := "Loaded monitor ExtractorSimulator";
	constant string LOADED_FREEZER_SIMULATOR := "Loaded monitor FreezerSimulator";
	constant string LOADED_FREEZE_DRYER_SIMULATOR := "Loaded monitor FreezerDryerSimulator";
}

event Time{
	constant float ADD_SECOND := 1.0;
}

event ExtractionBounds{ // bounds within the graph
	constant float MAXIMUM := 110.0;
	constant float MINIMUM := 0.0;
}

event Temperature{
	constant float PREHEAT_NUMBER := 13.1; //A random number; The random number has to be lower than 20 and higher than 10;
	constant float DRUM_MINIMUM := 0.0;
	constant float IMMINENT_FIRE := 258.0; // temperature at which the beans will start going on fire;
	
	constant float EXTRACTOR_INITIAL := 140.0; // random number between 130 and 150;
	//Has to differ from the starting drum temp in RoastDrum because it looks better on Grafana;
	constant float EXTRACTOR_PREHEAT := 12.1;  //A random number; The random number has to be lower than 20 and higher than 10;
	
	constant float FREEZER_MAX := -60.0;
	constant float FREEZER_MIN := -20.0;
}

event ColorScheme{
	constant integer SIZE := 50; // the size of the color scheme graph on Grafana that is displaying the current color of the beans;
}

event Divider{
	constant integer BY_HALF := 2;
}

event BeanTracker{
	constant float COLOR_CHANGER := 0.9; // 
	constant float COLOR_GATE_ENTRY := 0.4; // representing the percent (e.g. 0.4 = 40%);
}

event BeanRandom{
	constant float TEMP_INCREMENTER := 1.8; // maximum random value;
	constant float GATE_BOUND := 1.0; // representing the maximum percent value(e.g. 1.0 = 100%, 0.9 = 90%);
}
 00000064 C:\Users\y508970\workspace105\CoffeeFactoryDataSimulator\eventdefinitions\CoffeeFactoryConstants.mon
MONF 00000cec 
/** This monitor is responsible for ...  */

event CaffeineEvent{
	float currentCaffeine;
}

event VolatileOilsEvent{
	float currentVolatileOils;
}

event OrganicAcidsEvent{
	float currentOrganicAcids;
}

event ExtractorTemperature{
	float currentTemperature;
}

monitor ExtractorSimulator {

	float currentCaffeine := 1.0;
	float currentVolatileOils := 3.0;
	float currentOrganicAcids := 8.0;
	float currentTemp := preheatExtractor();
	float currentCoffeeToWaterRatio := 0.0;
	
	boolean highExtractionTemp := false; // used as a gate to decrease the temp;
	boolean lowExtractionTemp := true; // used as a gate to increase the temp;
	
	float caffeineTimeCounterSecs := 0.0;
	float oilsTimeCounterSecs := 0.0;
	float acidsTimeCounterSecs := 0.0;
	
	//Side value => Amount of compound (Unit) - A
	
	action onload() {
		log Message.LOADED_EXTRACT_SIMULATOR at INFO;
		initialize();
	}

	action initialize(){
		implementExtractorTemp();
		extractAll();
	}

	action extractAll(){
		extractCaffeine();
		extractVolatileOils();
		extractOrganicAcids();
	}

	/** 
	...
	*/
	action extractCaffeine(){
		listener listen := on all wait (1.0){
			currentCaffeine := blackBodyFormula(caffeineTimeCounterSecs, Caffeine.GRAPH_HEIGHT, Caffeine.GRAPH_LENGTH);  
			send CaffeineEvent(currentCaffeine) to Channel.EXTRACTOR; 
			caffeineTimeCounterSecs := caffeineTimeCounterSecs + Time.ADD_SECOND;
		}
	}

	/** 
	...
	*/
	action extractVolatileOils(){
		listener listen := on all wait (1.0){		
			currentVolatileOils := blackBodyFormula(oilsTimeCounterSecs, VolatileOils.GRAPH_HEIGHT, VolatileOils.GRAPH_LENGTH);	
			send VolatileOilsEvent(currentVolatileOils) to Channel.EXTRACTOR; 
			oilsTimeCounterSecs := oilsTimeCounterSecs + Time.ADD_SECOND;
		}
	}
	
	/** 
	...
	*/	
	action extractOrganicAcids(){
		listener listen := on all wait (1.0){
			currentOrganicAcids := blackBodyFormula(acidsTimeCounterSecs, OrganicAcids.GRAPH_HEIGHT, OrganicAcids.GRAPH_LENGTH); 
			send OrganicAcidsEvent(currentOrganicAcids) to Channel.EXTRACTOR; 
			acidsTimeCounterSecs := acidsTimeCounterSecs + Time.ADD_SECOND;
		}
	}
	
	/** 
		Increases/decreases the temperature in the extractor drum;
		
	*/
	action implementExtractorTemp(){
		listener listen := on all wait (2.0){
			float randomTempIncrementor := (2.0).rand(); // TODO FIX MAGIC NUMBER;
			currentTemp := currentTemp + randomTempIncrementor;
			send ExtractorTemperature(currentTemp) to Channel.EXTRACTOR; 
		}
	}
	
	/** 
	@param time = the time that has passed in seconds;
	@param height = increase value for higher function and decrease for lower; 7.7 is a random default value;
	@param length = increase to shrink function, decrease to expand function; 0.188 is a random default value;
	@return Max Planck's formula for Black-body radition
	*/
	action blackBodyFormula(float time, float height, float length) returns float{
		return (height * (length * time).pow(Math.CUBED)) / ( (float.E).pow(length * time) - Math.PLANCK_FORMULA_SUBTRACTOR);
	}
	
	/** 
	...
	*/
	action updateCoffeeToWaterRatio(){	
		//send ... to ...
	}
	
	action preheatExtractor() returns float{
		return (Temperature.EXTRACTOR_PREHEAT).rand() + Temperature.EXTRACTOR_INITIAL;
	}
	
}
 00000058 C:\Users\y508970\workspace105\CoffeeFactoryDataSimulator\monitors\ExtractorSimulator.mon
MONF 0000066c 
/** This monitor is responsible for ...  */

event FreezerDryerMoisture{
	float currentMoisture;
}

event FreezerDryerTemp{
	float currentTemp;
}

event FreezerDryerVacuum{
	float currentVacuum;
}

monitor FreezeDryerSimulator {

	float currentMoisture := 100.0;
	float currentTemp := 60.0;
	float currentVacuum := 150.0;
		
	boolean tempGate := false;
	boolean moistureGate := false;
	boolean vacuumGate := false;
	
	action onload() {
		initialize();
	}

	action initialize(){
		log Message.LOADED_FREEZE_DRYER_SIMULATOR at INFO;
		moistureEvaporating();
		implementTubeTemperature();
	}
		
	action moistureEvaporating(){
		listener listen := on all wait (2.0){
			float random := -(FreezerDryer.RANDOM_FLUCTUATION_NUMBER).rand();
			currentMoisture := currentMoisture + random;
			send FreezerDryerMoisture(currentMoisture) to Channel.FREEZE_DRYER;
		}
	}
	
	action implementTubeTemperature(){
		listener listen := on all wait (3.0){
			float random := (1.0).rand();
			currentTemp := currentTemp + random;
			implementFluctuation(tempGate, currentTemp);
			send FreezerDryerTemp(currentMoisture) to Channel.FREEZE_DRYER;
		}
	}
	
	action implementTubeVacuum(){
		listener listen := on all wait (2.0){
			float random := (4.0).rand(); 
			currentTemp := currentTemp + random;
			implementFluctuation(vacuumGate, currentTemp);
			send FreezerDryerTemp(currentMoisture) to Channel.FREEZE_DRYER;
		}
	}
	
	action implementFluctuation(boolean gate, float currentValue){
		if gate {
			currentValue := -currentValue;
			gate := false;
		}else{
			gate := true;
		}
	}
	
	
}
 0000005a C:\Users\y508970\workspace105\CoffeeFactoryDataSimulator\monitors\FreezeDryerSimulator.mon
MONF 0000043f 
/** This monitor is responsible for ...  */

event FreezerTemperature{
	float currentFreezerTemp;
}

monitor FreezerSimulator {
	
	float currentFreezerTemp := -50.0; // default freezer temperature;
	boolean flag := false; //When using the random variable we either decrease or
	//increase the current freezer temperature, using this variable we set the turns;

	action onload() {
		log Message.LOADED_FREEZER_SIMULATOR at INFO;
		freeze();
	}
	
	action freeze(){
		listener listen := on all wait (3.0){
			float randomTemp := getRandomTemp();	
			currentFreezerTemp := (currentFreezerTemp + randomTemp);
			send FreezerTemperature(currentFreezerTemp) to Channel.FREEZE;
			log "Simulation Freezer temp: " + currentFreezerTemp.toString() at INFO;

		}
	}
	
	action getRandomTemp() returns float{
		float randomTemp := (FreezerTemp.RANDOM_FLUCTUATION_NUMBER).rand();
		// below = take turns adding -> subtracting random values; 
		if flag {
			randomTemp := -randomTemp;
			flag := false;
		}else{
			flag := true;
		}
		return randomTemp;
	}
	
}
 00000056 C:\Users\y508970\workspace105\CoffeeFactoryDataSimulator\monitors\FreezerSimulator.mon
MONF 00000ae2 
event ColorTrack{
	float currentBeanVolt;
}

event DrumTemperature{
	float currentDrumTemperature;
}

/** This monitor is responsible for ...  */

monitor RoastDrumSimulator {

	integer beanIllustrator := 1; //parses the number so the program can display the actual color of the bean in a range from 1 to 100; Where 1 is green and very black is 100;
	integer currentBeanTemp := 0; // average temp;

	float currentDrumTemp := preheatDrum(); // default temp in drum before roasting is just below 200, e.g. 190;
	float currentBeanVolt := BeanColorVolt.MAXIMUM; 
	
	boolean highRoastTemp := false; // used as a gate to decrease the temp;
	boolean lowRoastTemp := true; // used as a gate to increase the temp;
	
	action onload() {
		log Message.LOADED_ROAST_SIMULATOR at INFO;
		initialize();
	}

	action initialize(){
			heatDrum();
			colorTrack();
	}
	
	/** 
	@return ...
	*/
	action preheatDrum() returns float{
		return (Temperature.PREHEAT_NUMBER).rand() + BeanTemp.PALE;
	}
	
	/** 
		...
	*/
	action heatDrum(){		
		listener listen := on all wait (2.0){
			float randomTemp := (BeanRandom.TEMP_INCREMENTER).rand();				
			currentDrumTemp := (currentDrumTemp + randomTemp);
			send DrumTemperature(currentDrumTemp) to Channel.ROAST;
		}
	}	
	
	/** 
		....
	*/
	action colorTrack(){
		listener listen := on all wait (1.0){
			float randomVoltIncrease := (BeanTracker.COLOR_CHANGER).rand(); // the beans spin while in the drum, therefore their temperature might differ slightly. Plus, making the graph more realistic;
			float gate := (BeanRandom.GATE_BOUND).rand();
			integer beanColorIllustrator := getBeanIllustrator(currentBeanVolt);

			implementBeanVolt(gate, randomVoltIncrease);
			send ColorTrack(currentBeanVolt) to Channel.ROAST;
		}
	}
	
	/** 
	@param gate ...
	@param randomVoltIncrease ...
	*/
	action implementBeanVolt(float gate, float randomVoltIncrease){
		if gate <= BeanTracker.COLOR_GATE_ENTRY {
			currentBeanVolt := currentBeanVolt + randomVoltIncrease;
		}else{
			currentBeanVolt := currentBeanVolt - BeanTracker.COLOR_CHANGER; // 0-100 Volts DC; 280 maximum temp in drum -> 280/100 = 2.8; Therefore, 2.8 decrease per degree celsius;
		}
	}
	
	/** 
	@param beanVolt ...
	@return ....
		formula: the color scheme graph contains half the range the beanvolt has
		(i.e. BeanVolt starts at 100 and goes down to 0, colorScheme starts at 0 and goes up to 50).
		Hence, get half of bean volt and remove 50 since the colorScheme operates in the 0-50 range;
	*/
	action getBeanIllustrator(float beanVolt) returns integer {
		return (getHalf(beanVolt) - ColorScheme.SIZE).abs(); 
	}
	
	action getHalf(float value) returns integer{
		return value.floor() / Divider.BY_HALF;
	}
}
  00000054 C:\Users\y508970\workspace105\CoffeeFactoryDataSimulator\monitors\RoastSimulator.mon
TIME 0000000c 1568124589,1
TIME 0000000e 1568124589.1,1
CONN 0000003c 6735043813323884896:6733354976348522848 from 127.0.0.1:15903
DISC 0000003c 1907214234774601728:1982231146900029440 from 127.0.0.1:52649
TIME 0000000e 1568124590.1,1
TIME 0000000e 1568124591.1,1
TIME 0000000e 1568124592.1,1
TIME 0000000e 1568124593.1,1
TIME 0000000e 1568124594.1,1
TIME 0000000e 1568124595.1,1
TIME 0000000e 1568124596.1,1
TIME 0000000e 1568124597.1,1
TIME 0000000e 1568124598.1,1
TIME 0000000e 1568124599.1,1
TIME 0000000e 1568124600.1,1
TIME 0000000e 1568124601.1,1
TIME 0000000e 1568124602.1,1
TIME 0000000e 1568124603.1,1
TIME 0000000e 1568124604.1,1
TIME 0000000e 1568124605.1,1
TIME 0000000e 1568124606.1,1
TIME 0000000e 1568124607.1,1
TIME 0000000e 1568124608.1,1
TIME 0000000e 1568124609.1,1
TIME 0000000e 1568124610.1,1
TIME 0000000e 1568124611.1,1
TIME 0000000e 1568124612.1,1
TIME 0000000e 1568124613.1,1
TIME 0000000e 1568124614.1,1
TIME 0000000e 1568124615.1,1
TIME 0000000e 1568124616.1,1
TIME 0000000e 1568124617.1,1
TIME 0000000e 1568124618.1,1
TIME 0000000e 1568124619.1,1
TIME 0000000e 1568124620.1,1
TIME 0000000e 1568124621.1,1
TIME 0000000e 1568124622.1,1
TIME 0000000e 1568124623.1,1
TIME 0000000e 1568124624.1,1
TIME 0000000e 1568124625.1,1
TIME 0000000e 1568124626.1,1
TIME 0000000e 1568124627.1,1
TIME 0000000e 1568124628.1,1
TIME 0000000e 1568124629.1,1
TIME 0000000e 1568124630.1,1
TIME 0000000e 1568124631.1,1
TIME 0000000e 1568124632.1,1
TIME 0000000e 1568124633.1,1
TIME 0000000e 1568124634.1,1
TIME 0000000e 1568124635.1,1
TIME 0000000e 1568124636.1,1
TIME 0000000e 1568124637.1,1
TIME 0000000e 1568124638.1,1
TIME 0000000e 1568124639.1,1
TIME 0000000e 1568124640.1,1
TIME 0000000e 1568124641.1,1
TIME 0000000e 1568124642.1,1
TIME 0000000e 1568124643.1,1
TIME 0000000e 1568124644.1,1
TIME 0000000e 1568124645.1,1
TIME 0000000e 1568124646.1,1
TIME 0000000e 1568124647.1,1
TIME 0000000e 1568124648.1,1
TIME 0000000e 1568124649.1,1
TIME 0000000e 1568124650.1,1
TIME 0000000e 1568124651.1,1
TIME 0000000e 1568124652.1,1
TIME 0000000e 1568124653.1,1
TIME 0000000e 1568124654.1,1
TIME 0000000e 1568124655.1,1
TIME 0000000e 1568124656.1,1
TIME 0000000e 1568124657.1,1
TIME 0000000e 1568124658.1,1
TIME 0000000e 1568124659.1,1
TIME 0000000e 1568124660.1,1
TIME 0000000e 1568124661.1,1
TIME 0000000e 1568124662.1,1
TIME 0000000e 1568124663.1,1
TIME 0000000e 1568124664.1,1
TIME 0000000e 1568124665.1,1
TIME 0000000e 1568124666.1,1
TIME 0000000e 1568124667.1,1
TIME 0000000e 1568124668.1,1
TIME 0000000e 1568124669.1,1
TIME 0000000e 1568124670.1,1
TIME 0000000e 1568124671.1,1
TIME 0000000e 1568124672.1,1
TIME 0000000e 1568124673.1,1
TIME 0000000e 1568124674.1,1
TIME 0000000e 1568124675.1,1
TIME 0000000e 1568124676.1,1
TIME 0000000e 1568124677.1,1
TIME 0000000e 1568124678.1,1
TIME 0000000e 1568124679.1,1
TIME 0000000e 1568124680.1,1
TIME 0000000e 1568124681.1,1
TIME 0000000e 1568124682.1,1
TIME 0000000e 1568124683.1,1
TIME 0000000e 1568124684.1,1
TIME 0000000e 1568124685.1,1
TIME 0000000e 1568124686.1,1
TIME 0000000e 1568124687.1,1
TIME 0000000e 1568124688.1,1
TIME 0000000e 1568124689.1,1
TIME 0000000e 1568124690.1,1
TIME 0000000e 1568124691.1,1
TIME 0000000e 1568124692.1,1
TIME 0000000e 1568124693.1,1
TIME 0000000e 1568124694.1,1
TIME 0000000e 1568124695.1,1
TIME 0000000e 1568124696.1,1
TIME 0000000e 1568124697.1,1
TIME 0000000e 1568124698.1,1
TIME 0000000e 1568124699.1,1
TIME 0000000e 1568124700.1,1
TIME 0000000e 1568124701.1,1
TIME 0000000e 1568124702.1,1
TIME 0000000e 1568124703.1,1
TIME 0000000e 1568124704.1,1
TIME 0000000e 1568124705.1,1
TIME 0000000e 1568124706.1,1
TIME 0000000e 1568124707.1,1
TIME 0000000e 1568124708.1,1
TIME 0000000e 1568124709.1,1
TIME 0000000e 1568124710.1,1
TIME 0000000e 1568124711.1,1
TIME 0000000e 1568124712.1,1
TIME 0000000e 1568124713.1,1
TIME 0000000e 1568124714.1,1
TIME 0000000e 1568124715.1,1
TIME 0000000e 1568124716.1,1
TIME 0000000e 1568124717.1,1
TIME 0000000e 1568124718.1,1
TIME 0000000e 1568124719.1,1
TIME 0000000e 1568124720.1,1
TIME 0000000e 1568124721.1,1
TIME 0000000e 1568124722.1,1
TIME 0000000e 1568124723.1,1
TIME 0000000e 1568124724.1,1
TIME 0000000e 1568124725.1,1
TIME 0000000e 1568124726.1,1
TIME 0000000e 1568124727.1,1
TIME 0000000e 1568124728.1,1
TIME 0000000e 1568124729.1,1
TIME 0000000e 1568124730.1,1
TIME 0000000e 1568124731.1,1
TIME 0000000e 1568124732.1,1
TIME 0000000e 1568124733.1,1
TIME 0000000e 1568124734.1,1
TIME 0000000e 1568124735.1,1
TIME 0000000e 1568124736.1,1
TIME 0000000e 1568124737.1,1
TIME 0000000e 1568124738.1,1
TIME 0000000e 1568124739.1,1
TIME 0000000e 1568124740.1,1
TIME 0000000e 1568124741.1,1
TIME 0000000e 1568124742.1,1
TIME 0000000e 1568124743.1,1
TIME 0000000e 1568124744.1,1
TIME 0000000e 1568124745.1,1
TIME 0000000e 1568124746.1,1
TIME 0000000e 1568124747.1,1
TIME 0000000e 1568124748.1,1
TIME 0000000e 1568124749.1,1
TIME 0000000e 1568124750.1,1
TIME 0000000e 1568124751.1,1
TIME 0000000e 1568124752.1,1
TIME 0000000e 1568124753.1,1
TIME 0000000e 1568124754.1,1
TIME 0000000e 1568124755.1,1
TIME 0000000e 1568124756.1,1
TIME 0000000e 1568124757.1,1
TIME 0000000e 1568124758.1,1
TIME 0000000e 1568124759.1,1
TIME 0000000e 1568124760.1,1
TIME 0000000e 1568124761.1,1
TIME 0000000e 1568124762.1,1
TIME 0000000e 1568124763.1,1
TIME 0000000e 1568124764.1,1
TIME 0000000e 1568124765.1,1
TIME 0000000e 1568124766.1,1
TIME 0000000e 1568124767.1,1
TIME 0000000e 1568124768.1,1
TIME 0000000e 1568124769.1,1
TIME 0000000e 1568124770.1,1
TIME 0000000e 1568124771.1,1
TIME 0000000e 1568124772.1,1
TIME 0000000e 1568124773.1,1
TIME 0000000e 1568124774.1,1
TIME 0000000e 1568124775.1,1
TIME 0000000e 1568124776.1,1
TIME 0000000e 1568124777.1,1
TIME 0000000e 1568124778.1,1
TIME 0000000e 1568124779.1,1
TIME 0000000e 1568124780.1,1
TIME 0000000e 1568124781.1,1
TIME 0000000e 1568124782.1,1
TIME 0000000e 1568124783.1,1
TIME 0000000e 1568124784.1,1
TIME 0000000e 1568124785.1,1
TIME 0000000e 1568124786.1,1
TIME 0000000e 1568124787.1,1
TIME 0000000e 1568124788.1,1
TIME 0000000e 1568124789.1,1
TIME 0000000e 1568124790.1,1
TIME 0000000e 1568124791.1,1
TIME 0000000e 1568124792.1,1
TIME 0000000e 1568124793.1,1
TIME 0000000e 1568124794.1,1
TIME 0000000e 1568124795.1,1
TIME 0000000e 1568124796.1,1
TIME 0000000e 1568124797.1,1
TIME 0000000e 1568124798.1,1
TIME 0000000e 1568124799.1,1
TIME 0000000e 1568124800.1,1
TIME 0000000e 1568124801.1,1
TIME 0000000e 1568124802.1,1
TIME 0000000e 1568124803.1,1
TIME 0000000e 1568124804.1,1
TIME 0000000e 1568124805.1,1
TIME 0000000e 1568124806.1,1
TIME 0000000e 1568124807.1,1
TIME 0000000e 1568124808.1,1
TIME 0000000e 1568124809.1,1
TIME 0000000e 1568124810.1,1
TIME 0000000e 1568124811.1,1
TIME 0000000e 1568124812.1,1
TIME 0000000e 1568124813.1,1
TIME 0000000e 1568124814.1,1
TIME 0000000e 1568124815.1,1
TIME 0000000e 1568124816.1,1
TIME 0000000e 1568124817.1,1
TIME 0000000e 1568124818.1,1
TIME 0000000e 1568124819.1,1
TIME 0000000e 1568124820.1,1
TIME 0000000e 1568124821.1,1
TIME 0000000e 1568124822.1,1
TIME 0000000e 1568124823.1,1
TIME 0000000e 1568124824.1,1
TIME 0000000e 1568124825.1,1
TIME 0000000e 1568124826.1,1
TIME 0000000e 1568124827.1,1
TIME 0000000e 1568124828.1,1
TIME 0000000e 1568124829.1,1
TIME 0000000e 1568124830.1,1
TIME 0000000e 1568124831.1,1
TIME 0000000e 1568124832.1,1
TIME 0000000e 1568124833.1,1
TIME 0000000e 1568124834.1,1
TIME 0000000e 1568124835.1,1
TIME 0000000e 1568124836.1,1
TIME 0000000e 1568124837.1,1
TIME 0000000e 1568124838.1,1
TIME 0000000e 1568124839.1,1
TIME 0000000e 1568124840.1,1
TIME 0000000e 1568124841.1,1
TIME 0000000e 1568124842.1,1
TIME 0000000e 1568124843.1,1
TIME 0000000e 1568124844.1,1
TIME 0000000e 1568124845.1,1
TIME 0000000e 1568124846.1,1
TIME 0000000e 1568124847.1,1
TIME 0000000e 1568124848.1,1
TIME 0000000e 1568124849.1,1
TIME 0000000e 1568124850.1,1
TIME 0000000e 1568124851.1,1
TIME 0000000e 1568124852.1,1
TIME 0000000e 1568124853.1,1
TIME 0000000e 1568124854.1,1
TIME 0000000e 1568124855.1,1
TIME 0000000e 1568124856.1,1
TIME 0000000e 1568124857.1,1
TIME 0000000e 1568124858.1,1
TIME 0000000e 1568124859.1,1
TIME 0000000e 1568124860.1,1
TIME 0000000e 1568124861.1,1
TIME 0000000e 1568124862.1,1
TIME 0000000e 1568124863.1,1
TIME 0000000e 1568124864.1,1
TIME 0000000e 1568124865.1,1
TIME 0000000e 1568124866.1,1
TIME 0000000e 1568124867.1,1
TIME 0000000e 1568124868.1,1
TIME 0000000e 1568124869.1,1
TIME 0000000e 1568124870.1,1
TIME 0000000e 1568124871.1,1
TIME 0000000e 1568124872.1,1
TIME 0000000e 1568124873.1,1
TIME 0000000e 1568124874.1,1
TIME 0000000e 1568124875.1,1
TIME 0000000e 1568124876.1,1
TIME 0000000e 1568124877.1,1
TIME 0000000e 1568124878.1,1
TIME 0000000e 1568124879.1,1
TIME 0000000e 1568124880.1,1
TIME 0000000e 1568124881.1,1
TIME 0000000e 1568124882.1,1
TIME 0000000e 1568124883.1,1
TIME 0000000e 1568124884.1,1
TIME 0000000e 1568124885.1,1
TIME 0000000e 1568124886.1,1
TIME 0000000e 1568124887.1,1
TIME 0000000e 1568124888.1,1
TIME 0000000e 1568124889.1,1
TIME 0000000e 1568124890.1,1
TIME 0000000e 1568124891.1,1
TIME 0000000e 1568124892.1,1
TIME 0000000e 1568124893.1,1
TIME 0000000e 1568124894.1,1
TIME 0000000e 1568124895.1,1
TIME 0000000e 1568124896.1,1
TIME 0000000e 1568124897.1,1
TIME 0000000e 1568124898.1,1
TIME 0000000e 1568124899.1,1
TIME 0000000e 1568124900.1,1
TIME 0000000e 1568124901.1,1
DISC 0000003c 6735043813323884896:6733354976348522848 from 127.0.0.1:15903
TIME 0000000e 1568124902.1,1
TIME 0000000e 1568124903.1,1
TIME 0000000e 1568124904.1,1
TIME 0000000e 1568124905.1,1
TIME 0000000e 1568124906.1,1
TIME 0000000e 1568124907.1,1
TIME 0000000e 1568124908.1,1
TIME 0000000e 1568124909.1,1
TIME 0000000e 1568124910.1,1
TIME 0000000e 1568124911.1,1
TIME 0000000e 1568124912.1,1
TIME 0000000e 1568124913.1,1
TIME 0000000e 1568124914.1,1
TIME 0000000e 1568124915.1,1
TIME 0000000e 1568124916.1,1
TIME 0000000e 1568124917.1,1
TIME 0000000e 1568124918.1,1
TIME 0000000e 1568124919.1,1
TIME 0000000e 1568124920.1,1
TIME 0000000e 1568124921.1,1
TIME 0000000e 1568124922.1,1
TIME 0000000e 1568124923.1,1
TIME 0000000e 1568124924.1,1
TIME 0000000e 1568124925.1,1
TIME 0000000e 1568124926.1,1
TIME 0000000e 1568124927.1,1
TIME 0000000e 1568124928.1,1
TIME 0000000e 1568124929.1,1
TIME 0000000e 1568124930.1,1
TIME 0000000e 1568124931.1,1
TIME 0000000e 1568124932.1,1
TIME 0000000e 1568124933.1,1
TIME 0000000e 1568124934.1,1
TIME 0000000e 1568124935.1,1
TIME 0000000e 1568124936.1,1
TIME 0000000e 1568124937.1,1
TIME 0000000e 1568124938.1,1
TIME 0000000e 1568124939.1,1
TIME 0000000e 1568124940.1,1
TIME 0000000e 1568124941.1,1
TIME 0000000e 1568124942.1,1
TIME 0000000e 1568124943.1,1
TIME 0000000e 1568124944.1,1
TIME 0000000e 1568124945.1,1
TIME 0000000e 1568124946.1,1
TIME 0000000e 1568124947.1,1
TIME 0000000e 1568124948.1,1
TIME 0000000e 1568124949.1,1
TIME 0000000e 1568124950.1,1
TIME 0000000e 1568124951.1,1
TIME 0000000e 1568124952.1,1
TIME 0000000e 1568124953.1,1
TIME 0000000e 1568124954.1,1
TIME 0000000e 1568124955.1,1
TIME 0000000e 1568124956.1,1
TIME 0000000e 1568124957.1,1
TIME 0000000e 1568124958.1,1
TIME 0000000e 1568124959.1,1
TIME 0000000e 1568124960.1,1
TIME 0000000e 1568124961.1,1
TIME 0000000e 1568124962.1,1
TIME 0000000e 1568124963.1,1
TIME 0000000e 1568124964.1,1
TIME 0000000e 1568124965.1,1
TIME 0000000e 1568124966.1,1
TIME 0000000e 1568124967.1,1
TIME 0000000e 1568124968.1,1
TIME 0000000e 1568124969.1,1
TIME 0000000e 1568124970.1,1
TIME 0000000e 1568124971.1,1
TIME 0000000e 1568124972.1,1
TIME 0000000e 1568124973.1,1
TIME 0000000e 1568124974.1,1
TIME 0000000e 1568124975.1,1
TIME 0000000e 1568124976.1,1
TIME 0000000e 1568124977.1,1
TIME 0000000e 1568124978.1,1
TIME 0000000e 1568124979.1,1
TIME 0000000e 1568124980.1,1
TIME 0000000e 1568124981.1,1
TIME 0000000e 1568124982.1,1
TIME 0000000e 1568124983.1,1
TIME 0000000e 1568124984.1,1
TIME 0000000e 1568124985.1,1
TIME 0000000e 1568124986.1,1
TIME 0000000e 1568124987.1,1
TIME 0000000e 1568124988.1,1
TIME 0000000e 1568124989.1,1
TIME 0000000e 1568124990.1,1
TIME 0000000e 1568124991.1,1
TIME 0000000e 1568124992.1,1
TIME 0000000e 1568124993.1,1
TIME 0000000e 1568124994.1,1
TIME 0000000e 1568124995.1,1
TIME 0000000e 1568124996.1,1
TIME 0000000e 1568124997.1,1
TIME 0000000e 1568124998.1,1
TIME 0000000e 1568124999.1,1
TIME 0000000e 1568125000.1,1
TIME 0000000e 1568125001.1,1
TIME 0000000e 1568125002.1,1
TIME 0000000e 1568125003.1,1
TIME 0000000e 1568125004.1,1
TIME 0000000e 1568125005.1,1
TIME 0000000e 1568125006.1,1
TIME 0000000e 1568125007.1,1
TIME 0000000e 1568125008.1,1
TIME 0000000e 1568125009.1,1
TIME 0000000e 1568125010.1,1
TIME 0000000e 1568125011.1,1
TIME 0000000e 1568125012.1,1
TIME 0000000e 1568125013.1,1
TIME 0000000e 1568125014.1,1
TIME 0000000e 1568125015.1,1
TIME 0000000e 1568125016.1,1
TIME 0000000e 1568125017.1,1
TIME 0000000e 1568125018.1,1
TIME 0000000e 1568125019.1,1
TIME 0000000e 1568125020.1,1
TIME 0000000e 1568125021.1,1
TIME 0000000e 1568125022.1,1
TIME 0000000e 1568125023.1,1
TIME 0000000e 1568125024.1,1
TIME 0000000e 1568125025.1,1
TIME 0000000e 1568125026.1,1
TIME 0000000e 1568125027.1,1
TIME 0000000e 1568125028.1,1
TIME 0000000e 1568125029.1,1
TIME 0000000e 1568125030.1,1
TIME 0000000e 1568125031.1,1
TIME 0000000e 1568125032.1,1
TIME 0000000e 1568125033.1,1
TIME 0000000e 1568125034.1,1
TIME 0000000e 1568125035.1,1
TIME 0000000e 1568125036.1,1
TIME 0000000e 1568125037.1,1
TIME 0000000e 1568125038.1,1
TIME 0000000e 1568125039.1,1
TIME 0000000e 1568125040.1,1
TIME 0000000e 1568125041.1,1
TIME 0000000e 1568125042.1,1
TIME 0000000e 1568125043.1,1
TIME 0000000e 1568125044.1,1
TIME 0000000e 1568125045.1,1
TIME 0000000e 1568125046.1,1
TIME 0000000e 1568125047.1,1
TIME 0000000e 1568125048.1,1
TIME 0000000e 1568125049.1,1
TIME 0000000e 1568125050.1,1
TIME 0000000e 1568125051.1,1
TIME 0000000e 1568125052.1,1
TIME 0000000e 1568125053.1,1
TIME 0000000e 1568125054.1,1
TIME 0000000e 1568125055.1,1
TIME 0000000e 1568125056.1,1
TIME 0000000e 1568125057.1,1
TIME 0000000e 1568125058.1,1
TIME 0000000e 1568125059.1,1
TIME 0000000e 1568125060.1,1
TIME 0000000e 1568125061.1,1
TIME 0000000e 1568125062.1,1
TIME 0000000e 1568125063.1,1
TIME 0000000e 1568125064.1,1
TIME 0000000e 1568125065.1,1
TIME 0000000e 1568125066.1,1
TIME 0000000e 1568125067.1,1
TIME 0000000e 1568125068.1,1
DISC 0000003c 6735043805387737440:6734762343295928672 from 127.0.0.1:52654
