VERS 00000001 5
HEAD 0000131e <?xml version="1.0"?>
<?xml-stylesheet type="text/xsl" href="/resources/transform.xslt"?><header><componentName>correlator</componentName><version>10.5.0.0.357639</version><build>rel/10.5.0.x@357639</build><buildPlatform>amd64-win</buildPlatform><platform>Windows 10 Enterprise</platform><cputype>GenuineIntel family 6 model 14 stepping 3 Intel(R) Core(TM) i7-6600U CPU @ 2.60GHz</cputype><cpus name="cpus">4.00</cpus><javaEnabled>true</javaEnabled><replayLogMode>inputLog</replayLogMode><args><arg>C:\dev\apama_win_full_latest\Apama\bin\correlator.exe</arg><arg>--config</arg><arg>C:\Users\y508970\workspace105\CoffeeFactoryDataSimulator\config\CorrelatorConfig.yaml</arg><arg>--port</arg><arg>15904</arg><arg>--loglevel</arg><arg>INFO</arg><arg>--name</arg><arg>Apama Designer Correlator for CoffeeFactoryDataSimulator(CoffeeFactoryDataSimulator:Correlator2)</arg><arg>-j</arg><arg>--inputLog</arg><arg>logs/Correlator2_${START_TIME}_${ID}.input.log</arg></args><environment><variable>ALLUSERSPROFILE=C:\ProgramData</variable><variable>APAMA_HOME=C:\dev\apama_win_full_latest\Apama</variable><variable>APAMA_WORK=C:\Users\Public\SoftwareAG\ApamaWork_10.5</variable><variable>APPDATA=C:\Users\y508970\AppData\Roaming</variable><variable>COMMONPROGRAMFILES=C:\Program Files\Common Files</variable><variable>COMMONPROGRAMFILES(X86)=C:\Program Files (x86)\Common Files</variable><variable>COMMONPROGRAMW6432=C:\Program Files\Common Files</variable><variable>COMPUTERNAME=SAG-98V9PF2</variable><variable>COMSPEC=C:\Windows\system32\cmd.exe</variable><variable>DEFLOGDIR=C:\ProgramData\McAfee\Endpoint Security\Logs</variable><variable>DRIVERDATA=C:\Windows\System32\Drivers\DriverData</variable><variable>EMPIRUMSERVER=cukuni02.eur.ad.sag</variable><variable>EMPIRUMSERVICEPARTITION=0</variable><variable>EMPSRVLONG=cukuni02.eur.ad.sag</variable><variable>HOMEDRIVE=C:</variable><variable>HOMEPATH=\Users\y508970</variable><variable>LOCALAPPDATA=C:\Users\y508970\AppData\Local</variable><variable>LOGONSERVER=\\CUKDC85</variable><variable>NUMBER_OF_PROCESSORS=4</variable><variable>ONEDRIVE=C:\Users\y508970\OneDrive - Software AG</variable><variable>ONEDRIVECOMMERCIAL=C:\Users\y508970\OneDrive - Software AG</variable><variable>OS=Windows_NT</variable><variable>PATH=C:\dev\apama_win_full_latest\Apama\..\jvm\jvm\jre\bin\server;C:\dev\apama_win_full_latest\Apama\..\jvm\jvm\jre\bin;C:\dev\apama_win_full_latest\Apama\bin;C:\dev\apama_win_full_latest\Apama\..\common\security\openssl\bin;C:\Users\Public\SoftwareAG\ApamaWork_10.5\lib;C:\dev\apama_win_full_latest\Apama\..\jvm\jvm\jre\bin;C:\dev\apama_win_full_latest\Apama\..\jvm\jvm\jre\bin\server;C:\dev\apama_win_full_latest\Apama\..\UniversalMessaging\cplus\lib\x86_64;C:\dev\apama_win_full_latest\Apama\bin;C:\Windows\system32;C:\Windows;C:\Windows\System32\Wbem;C:\Windows\System32\WindowsPowerShell\v1.0\;C:\Windows\System32\OpenSSH\;C:\Program Files\Intel\WiFi\bin\;C:\Program Files\Common Files\Intel\WirelessCommon\;C:\Program Files (x86)\Intel\Intel(R) Management Engine Components\DAL;C:\Program Files\Intel\Intel(R) Management Engine Components\DAL;C:\Program Files\PuTTY\;C:\Program Files\SlikSvn\bin;C:\Program Files\dotnet\;C:\Program Files\Microsoft SQL Server\130\Tools\Binn\;C:\Program Files\TortoiseSVN\bin;C:\Program Files\TortoiseGit\bin;C:\Users\y508970\AppData\Local\Microsoft\WindowsApps;C:\Users\y508970\AppData\Local\Programs\Git\cmd;C:\Users\y508970\AppData\Local\GitHubDesktop\bin</variable><variable>PATHEXT=.COM;.EXE;.BAT;.CMD;.VBS;.VBE;.JS;.JSE;.WSF;.WSH;.MSC</variable><variable>PROCESSOR_ARCHITECTURE=AMD64</variable><variable>PROCESSOR_IDENTIFIER=Intel64 Family 6 Model 78 Stepping 3, GenuineIntel</variable><variable>PROCESSOR_LEVEL=6</variable><variable>PROCESSOR_REVISION=4e03</variable><variable>PROGRAMDATA=C:\ProgramData</variable><variable>PROGRAMFILES=C:\Program Files</variable><variable>PROGRAMFILES(X86)=C:\Program Files (x86)</variable><variable>PROGRAMW6432=C:\Program Files</variable><variable>PROMPT=$P$G</variable><variable>PSMODULEPATH=C:\Program Files\WindowsPowerShell\Modules;C:\Windows\system32\WindowsPowerShell\v1.0\Modules;C:\Program Files\Barracuda\Network Access Client\Modules</variable><variable>PUBLIC=C:\Users\Public</variable><variable>SESSIONNAME=Console</variable><variable>SSL_CERT_FILE=C:\dev\apama_win_full_latest\Apama\..\common\security\openssl\cert.pem</variable><variable>SYSTEMDRIVE=C:</variable><variable>SYSTEMROOT=C:\Windows</variable><variable>TEMP=C:\Users\y508970\AppData\Local\Temp</variable><variable>TMP=C:\Users\y508970\AppData\Local\Temp</variable><variable>USERDNSDOMAIN=EUR.AD.SAG</variable><variable>USERDOMAIN=EUR</variable><variable>USERDOMAIN_ROAMINGPROFILE=EUR</variable><variable>USERNAME=y508970</variable><variable>USERPROFILE=C:\Users\y508970</variable><variable>WINDIR=C:\Windows</variable></environment><version>10.5.0.0.357639</version></header>
YAML 000004a7 ###############################################################################
# $Copyright (c) 2016 Software AG, Darmstadt, Germany and/or Software AG USA Inc., Reston, VA, USA, and/or its subsidiaries and/or its affiliates and/or their licensors.$
# Use, reproduction, transfer, publication or disclosure is prohibited except as specifically provided for in your License Agreement with Software AG
###############################################################################

#To set the default log file and level for an EPL package, monitor, or event, specify
# logging details in the eplLogging section of the YAML configuration file.
#For example:
#eplLogging:
#  com.myCompany.Client:
#    file: apama/Client.log
#    level: DEBUG
#  com.myCompany.Internal: { level: ERROR }


#See the information on setting log files and log levels in a YAML configuration file in the documentation for more
# information about the supported options.
#To enable use of this file when you launch this project from Designer, edit the project's run/launch configuration,
#open the correlator, and tick the "Configuration" checkbox next to the textbox that names this .yaml file.
 00000055 C:\Users\y508970\workspace105\CoffeeFactoryDataSimulator\config\CorrelatorConfig.yaml
RAND 00000009 385107458
TIME 00000010 1568048171.491,1
CONN 0000003c 1533606750805950464:1654030198820372480 from 127.0.0.1:53364
TIME 0000000e 1568048172.1,1
MONF 00001379 
/** This event consists of events full of constants which are used in the RoastDrum.mon file */

event BeanColor{
	constant integer VERY_LIGHT := 90;
	constant integer LIGHT := 80;
	constant integer YELLOW := 70;
	constant integer BROWN := 60;
	constant integer VERY_BROWN := 40;
	constant integer BLACK := 20;
}

event AlertType{
	constant integer IMMINENT_FIRE := 1;
	constant integer FIRST_CRACK := 2;
	constant integer BROWN_STAGE := 3;
	constant integer FULL_CITY := 4;
	constant integer VIENA_COFFEE := 5;
	constant integer FULL_FRENCH := 6;
}

event BeanColorVolt{
	constant float MAXIMUM := 100.0; // = 10Volt DC -> green bean;
	constant float MINIMUM := 10.0; // = 1Volt DC -> extremely dark black bean;
}

event BeanTemp{
	// ALL values below are temperatures in celsius.
	//The names of the constants represent the color of the beans at the specific temperatures;
	constant float PALE := 131.0;
	constant integer LIGHT_BROWN := 198;
	constant integer MEDIUM_LIGHT_BROWN := 207;
	constant integer FULL_MEDIUM := 218;
	constant integer MEDIUM_DARK_BROWN := 223;
	constant integer DARK_BROWN := 229;
	constant integer VERY_DARK := 243;
	
}

event FreezerTemp{
	constant float RANDOM_FLUCTUATION_NUMBER := 1.5;
}

event FreezerDryer{ //TODO change name;
	constant float RANDOM_FLUCTUATION_NUMBER := 1.9;
	constant float MINIMUM_MOISTURE := 0.0;
}

event UserStatus{
	//The values represent the names of the queries that are passed to Prometheus
	//from which Grafana request them and uses their data;
	//Variables below are used in RoastDrum.mon
	constant string DRUM := "drum";
	constant string BEAN_COLOR := "beanColor";
	constant string BEAN_ILLUSTRATOR := "beanIllustrator";
	constant string ALERT := "alert";
	
	//Variables below are used in Extractor.mon
	constant string CAFFEINE := "caffeine";
	constant string VOLATILE_OILS := "volatileOils";
	constant string ORGANIC_ACIDS := "organicAcids";
	constant string EXTRACTOR_TEMP := "extractorTemp";
	constant string COFFEE_TO_WATER_RATIO := "coffeeToWater";
	
	constant string FREEZER_TEMP := "freezerTemp";
	
	constant string MOISTURE := "moisture";
}

event Channel{
	constant string ROAST := "roastChannel";
	constant string EXTRACTOR := "extractorChannel";
	constant string FREEZE := "freezeChannel";
	constant string FREEZE_DRYER := "freezeDryerChannel";
}

event Caffeine{
	// default values used to increase/decrease the height/length of the caffeine graph;
	constant float GRAPH_HEIGHT := 7.7;
	constant float GRAPH_LENGTH := 0.188;
}

event VolatileOils{
	// default values used to increase/decrease the height/length of the volatile oils graph;
	constant float GRAPH_HEIGHT := 5.19;
	constant float GRAPH_LENGTH := 0.0415;
}

event OrganicAcids{
	// default values used to increase/decrease the height/length of the organic graph;
	constant float GRAPH_HEIGHT := 3.11;
	constant float GRAPH_LENGTH := 0.0197;
}

event Math{
	constant float CUBED := 3.0;
	constant float PLANCK_FORMULA_SUBTRACTOR := -1.0; // bl
}

event Message{
	constant string LOADED_ROAST_SIMULATOR := "Loaded monitor RoastSimulator";
	constant string LOADED_EXTRACT_SIMULATOR := "Loaded monitor ExtractorSimulator";
	constant string LOADED_FREEZER_SIMULATOR := "Loaded monitor FreezerSimulator";
	constant string LOADED_FREEZE_DRYER_SIMULATOR := "Loaded monitor FreezerDryerSimulator";
}

event Time{
	constant float ADD_SECOND := 1.0;
}

event ExtractionBounds{ // bounds within the graph
	constant float MAXIMUM := 110.0;
	constant float MINIMUM := 0.0;
}

event Delay{
	constant float ONE_SECOND := 1.0;
	constant float TWO_SECONDS := 2.0;
	constant float THREE_SECONDS := 3.0;
}

event Temperature{
	constant float PREHEAT_NUMBER := 13.1; //A random number; The random number has to be lower than 20 and higher than 10;
	constant float DRUM_MINIMUM := 0.0;
	constant float IMMINENT_FIRE := 258.0; // temperature at which the beans will start going on fire;
	
	constant float EXTRACTOR_INITIAL := 140.0; // random number between 130 and 150;
	//Has to differ from the starting drum temp in RoastDrum because it looks better on Grafana;
	constant float EXTRACTOR_PREHEAT := 12.1;  //A random number; The random number has to be lower than 20 and higher than 10;
	
	constant float FREEZER_MAX := -60.0;
	constant float FREEZER_MIN := -20.0;
}

event ColorScheme{
	constant integer SIZE := 50; // the size of the color scheme graph on Grafana that is displaying the current color of the beans;
}

event Divider{
	constant integer BY_HALF := 2;
}

event BeanTracker{
	constant float COLOR_CHANGER := 0.9; // 
	constant float COLOR_GATE_ENTRY := 0.4; // representing the percent (e.g. 0.4 = 40%);
}

event BeanRandom{
	constant float TEMP_INCREMENTER := 1.8; // maximum random value;
	constant float GATE_BOUND := 1.0; // representing the maximum percent value(e.g. 1.0 = 100%, 0.9 = 90%);
}
 00000064 C:\Users\y508970\workspace105\CoffeeFactoryDataSimulator\eventdefinitions\CoffeeFactoryConstants.mon
MONF 00000e2d 
/** This monitor is responsible for ...  */

event CaffeineEvent{
	float currentCaffeine;
}

event VolatileOilsEvent{
	float currentVolatileOils;
}

event OrganicAcidsEvent{
	float currentOrganicAcids;
}

event ExtractorTemperature{
	float currentTemperature;
}

monitor ExtractorSimulator {

	float currentCaffeine := 1.0;
	float currentVolatileOils := 3.0;
	float currentOrganicAcids := 8.0;
	float currentTemp := preheatExtractor();
	float currentCoffeeToWaterRatio := 0.0;
	
	boolean highExtractionTemp := false; // used as a gate to decrease the temp;
	boolean lowExtractionTemp := true; // used as a gate to increase the temp;
	
	float caffeineTimeCounter := 0.0;
	float oilsTimeCounter := 0.0;
	float acidsTimeCounter := 0.0;
	
	//Side value => Amount of compound (Unit) - A
	
	action onload() {
		log Message.LOADED_EXTRACT_SIMULATOR at INFO;
		initialize();
	}

	action initialize(){
		implementExtractorTemp();
		extractAll();
	}

	action extractAll(){
		extractCaffeine();
		extractVolatileOils();
		extractOrganicAcids();
	}

	/** 
	...
	*/
	action extractCaffeine(){
		listener listen := on all wait (Delay.ONE_SECOND){
			currentCaffeine := blackBodyFormula(caffeineTimeCounter, Caffeine.GRAPH_HEIGHT, Caffeine.GRAPH_LENGTH);  
			send CaffeineEvent(currentCaffeine) to Channel.EXTRACTOR; 
			caffeineTimeCounter := caffeineTimeCounter + Time.ADD_SECOND;
			log "Simulation Extractor caffeine: " + currentCaffeine.toString() at INFO;
		}
	}

	/** 
	...
	*/
	action extractVolatileOils(){
		listener listen := on all wait (Delay.ONE_SECOND){		
			currentVolatileOils := blackBodyFormula(oilsTimeCounter, VolatileOils.GRAPH_HEIGHT, VolatileOils.GRAPH_LENGTH);	
			send CaffeineEvent(currentCaffeine) to Channel.EXTRACTOR; 
			oilsTimeCounter := oilsTimeCounter + Time.ADD_SECOND;
			log "Simulation Extractor volatile oils: " + currentVolatileOils.toString() at INFO;
		}
	}
	
	/** 
	...
	*/	
	action extractOrganicAcids(){
		listener listen := on all wait (Delay.ONE_SECOND){
			currentOrganicAcids := blackBodyFormula(acidsTimeCounter, OrganicAcids.GRAPH_HEIGHT, OrganicAcids.GRAPH_LENGTH); 
			send CaffeineEvent(currentCaffeine) to Channel.EXTRACTOR; 
			acidsTimeCounter := acidsTimeCounter + Time.ADD_SECOND;
			log "Simulation Extractor organic acids: " + currentOrganicAcids.toString() at INFO;

		}
	}
	
	/** 
		Increases/decreases the temperature in the extractor drum;
		
	*/
	action implementExtractorTemp(){
		listener listen := on all wait (Delay.TWO_SECONDS){
			float randomTempIncrementor := (2.0).rand(); // TODO FIX MAGIC NUMBER;
			currentTemp := currentTemp + randomTempIncrementor;
			send ExtractorTemperature(currentTemp) to Channel.EXTRACTOR; 
			log "Simulation Extractor temp: " + currentTemp.toString() at INFO;
		}
	}
	
	/** 
	@param time = the time that has passed in seconds;
	@param height = increase value for higher function and decrease for lower; 7.7 is a random default value;
	@param length = increase to shrink function, decrease to expand function; 0.188 is a random default value;
	@return Max Planck's formula for Black-body radition
	*/
	action blackBodyFormula(float time, float height, float length) returns float{
		return (height * (length * time).pow(Math.CUBED)) / ( (float.E).pow(length * time) - Math.PLANCK_FORMULA_SUBTRACTOR);
	}
	
	/** 
	...
	*/
	action updateCoffeeToWaterRatio(){	
		//send ... to ...
	}
	
	action preheatExtractor() returns float{
		return (Temperature.EXTRACTOR_PREHEAT).rand() + Temperature.EXTRACTOR_INITIAL;
	}
	
}
 00000058 C:\Users\y508970\workspace105\CoffeeFactoryDataSimulator\monitors\ExtractorSimulator.mon
MONF 000002a9 
/** This monitor is responsible for ...  */

event FreezerDryerEvent{
	float currentMoisture;
}

monitor FreezeDryerSimulator {

	float currentMoisture := 100.0;
	
	action onload() {
		initialize();
	}

	action initialize(){
		log Message.LOADED_FREEZE_DRYER_SIMULATOR at INFO;
		freezeDry();
	}
		
	action freezeDry(){
		listener listen := on all wait (Delay.ONE_SECOND){
			float random := -(FreezerDryer.RANDOM_FLUCTUATION_NUMBER).rand();
			currentMoisture := currentMoisture + random;
			send FreezerDryerEvent(currentMoisture) to Channel.FREEZE_DRYER;
			log "Simulation FreezerDryer moisture: " + currentMoisture.toString() at INFO;

		}
	}
}
 0000005a C:\Users\y508970\workspace105\CoffeeFactoryDataSimulator\monitors\FreezeDryerSimulator.mon
TIME 0000000e 1568048172.2,1
MONF 0000044f 
/** This monitor is responsible for ...  */

event FreezerTemperature{
	float currentFreezerTemp;
}

monitor FreezerSimulator {
	
	float currentFreezerTemp := -50.0; // default freezer temperature;
	boolean flag := false; //When using the random variable we either decrease or
	//increase the current freezer temperature, using this variable we set the turns;

	action onload() {
		log Message.LOADED_FREEZER_SIMULATOR at INFO;
		freeze();
	}
	
	action freeze(){
		listener listen := on all wait (Delay.THREE_SECONDS){
			float randomTemp := getRandomTemp();	
			currentFreezerTemp := (currentFreezerTemp + randomTemp);
			send FreezerTemperature(currentFreezerTemp) to Channel.FREEZE;
			log "Simulation Freezer temp: " + currentFreezerTemp.toString() at INFO;

		}
	}
	
	action getRandomTemp() returns float{
		float randomTemp := (FreezerTemp.RANDOM_FLUCTUATION_NUMBER).rand();
		// below = take turns adding -> subtracting random values; 
		if flag {
			randomTemp := -randomTemp;
			flag := false;
		}else{
			flag := true;
		}
		return randomTemp;
	}
	
}
 00000056 C:\Users\y508970\workspace105\CoffeeFactoryDataSimulator\monitors\FreezerSimulator.mon
MONF 00000b95 
event ColorTrack{
	float currentBeanVolt;
}

event DrumTemperature{
	float currentDrumTemperature;
}

/** This monitor is responsible for ...  */
monitor RoastDrumSimulator {

	integer beanIllustrator := 1; //parses the number so the program can display the actual color of the bean in a range from 1 to 100; Where 1 is green and very black is 100;
	integer currentBeanTemp := 0; // average temp;

	float currentDrumTemp := preheatDrum(); // default temp in drum before roasting is just below 200, e.g. 190;
	float currentBeanVolt := BeanColorVolt.MAXIMUM; 
	
	boolean highRoastTemp := false; // used as a gate to decrease the temp;
	boolean lowRoastTemp := true; // used as a gate to increase the temp;
	
	action onload() {
		log Message.LOADED_ROAST_SIMULATOR at INFO;
		initialize();
	}

	action initialize(){
			heatDrum();
			colorTrack();
	}
	
	/** 
	@return ...
	*/
	action preheatDrum() returns float{
		return (Temperature.PREHEAT_NUMBER).rand() + BeanTemp.PALE;
	}
	
	/** 
		...
	*/
	action heatDrum(){		
		listener listen := on all wait (Delay.TWO_SECONDS){
			float randomTemp := (BeanRandom.TEMP_INCREMENTER).rand();				
			currentDrumTemp := (currentDrumTemp + randomTemp);
			send DrumTemperature(currentDrumTemp) to Channel.ROAST;
			log "Simulation RoastDrum temp: " + currentDrumTemp.toString() at INFO;

		}
	}	
	
	/** 
		....
	*/
	action colorTrack(){
		listener listen := on all wait (Delay.ONE_SECOND){
			float randomVoltIncrease := (BeanTracker.COLOR_CHANGER).rand(); // the beans spin while in the drum, therefore their temperature might differ slightly. Plus, making the graph more realistic;
			float gate := (BeanRandom.GATE_BOUND).rand();
			integer beanColorIllustrator := getBeanIllustrator(currentBeanVolt);

			implementBeanVolt(gate, randomVoltIncrease);
			send ColorTrack(currentBeanVolt) to Channel.ROAST;
			log "Simulation RoastDrum volt: " + currentBeanVolt.toString() at INFO;
		}
	}
	
	/** 
	@param gate ...
	@param randomVoltIncrease ...
	*/
	action implementBeanVolt(float gate, float randomVoltIncrease){
		if gate <= BeanTracker.COLOR_GATE_ENTRY {
			currentBeanVolt := currentBeanVolt + randomVoltIncrease;
		}else{
			currentBeanVolt := currentBeanVolt - BeanTracker.COLOR_CHANGER; // 0-100 Volts DC; 280 maximum temp in drum -> 280/100 = 2.8; Therefore, 2.8 decrease per degree celsius;
		}
	}
	
	/** 
	@param beanVolt ...
	@return ....
		formula: the color scheme graph contains half the range the beanvolt has
		(i.e. BeanVolt starts at 100 and goes down to 0, colorScheme starts at 0 and goes up to 50).
		Hence, get half of bean volt and remove 50 since the colorScheme operates in the 0-50 range;
	*/
	action getBeanIllustrator(float beanVolt) returns integer {
		return (getHalf(beanVolt) - ColorScheme.SIZE).abs(); 
	}
	
	action getHalf(float value) returns integer{
		return value.floor() / Divider.BY_HALF;
	}
}
  00000054 C:\Users\y508970\workspace105\CoffeeFactoryDataSimulator\monitors\RoastSimulator.mon
DISC 0000003c 1533606750805950464:1654030198820372480 from 127.0.0.1:53364
TIME 0000000e 1568048173.1,1
TIME 0000000e 1568048173.2,1
TIME 0000000e 1568048174.1,1
TIME 0000000e 1568048174.2,1
TIME 0000000e 1568048175.1,1
TIME 0000000e 1568048175.2,1
TIME 0000000e 1568048176.1,1
TIME 0000000e 1568048176.2,1
TIME 0000000e 1568048177.1,1
TIME 0000000e 1568048177.2,1
TIME 0000000e 1568048178.1,1
TIME 0000000e 1568048178.2,1
TIME 0000000e 1568048179.1,1
TIME 0000000e 1568048179.2,1
TIME 0000000e 1568048180.1,1
TIME 0000000e 1568048180.2,1
TIME 0000000e 1568048181.1,1
TIME 0000000e 1568048181.2,1
TIME 0000000e 1568048182.1,1
TIME 0000000e 1568048182.2,1
TIME 0000000e 1568048183.1,1
TIME 0000000e 1568048183.2,1
TIME 0000000e 1568048184.1,1
TIME 0000000e 1568048184.2,1
TIME 0000000e 1568048185.1,1
TIME 0000000e 1568048185.2,1
TIME 0000000e 1568048186.1,1
TIME 0000000e 1568048186.2,1
TIME 0000000e 1568048187.1,1
TIME 0000000e 1568048187.2,1
TIME 0000000e 1568048188.1,1
TIME 0000000e 1568048188.2,1
TIME 0000000e 1568048189.1,1
TIME 0000000e 1568048189.2,1
TIME 0000000e 1568048190.1,1
TIME 0000000e 1568048190.2,1
TIME 0000000e 1568048191.1,1
TIME 0000000e 1568048191.2,1
TIME 0000000e 1568048192.1,1
TIME 0000000e 1568048192.2,1
TIME 0000000e 1568048193.1,1
TIME 0000000e 1568048193.2,1
TIME 0000000e 1568048194.1,1
TIME 0000000e 1568048194.2,1
TIME 0000000e 1568048195.1,1
TIME 0000000e 1568048195.2,1
TIME 0000000e 1568048196.1,1
TIME 0000000e 1568048196.2,1
TIME 0000000e 1568048197.1,1
TIME 0000000e 1568048197.2,1
TIME 0000000e 1568048198.1,1
TIME 0000000e 1568048198.2,1
TIME 0000000e 1568048199.1,1
TIME 0000000e 1568048199.2,1
TIME 0000000e 1568048200.1,1
TIME 0000000e 1568048200.2,1
TIME 0000000e 1568048201.1,1
TIME 0000000e 1568048201.2,1
TIME 0000000e 1568048202.1,1
TIME 0000000e 1568048202.2,1
TIME 0000000e 1568048203.1,1
TIME 0000000e 1568048203.2,1
TIME 0000000e 1568048204.1,1
TIME 0000000e 1568048204.2,1
TIME 0000000e 1568048205.1,1
TIME 0000000e 1568048205.2,1
TIME 0000000e 1568048206.1,1
TIME 0000000e 1568048206.2,1
TIME 0000000e 1568048207.1,1
TIME 0000000e 1568048207.2,1
TIME 0000000e 1568048208.1,1
TIME 0000000e 1568048208.2,1
TIME 0000000e 1568048209.1,1
TIME 0000000e 1568048209.2,1
TIME 0000000e 1568048210.1,1
TIME 0000000e 1568048210.2,1
TIME 0000000e 1568048211.1,1
TIME 0000000e 1568048211.2,1
TIME 0000000e 1568048212.1,1
TIME 0000000e 1568048212.2,1
TIME 0000000e 1568048213.1,1
TIME 0000000e 1568048213.2,1
TIME 0000000e 1568048214.1,1
TIME 0000000e 1568048214.2,1
TIME 0000000e 1568048215.1,1
TIME 0000000e 1568048215.2,1
TIME 0000000e 1568048216.1,1
TIME 0000000e 1568048216.2,1
TIME 0000000e 1568048217.1,1
TIME 0000000e 1568048217.2,1
TIME 0000000e 1568048218.1,1
TIME 0000000e 1568048218.2,1
TIME 0000000e 1568048219.1,1
TIME 0000000e 1568048219.2,1
TIME 0000000e 1568048220.1,1
TIME 0000000e 1568048220.2,1
TIME 0000000e 1568048221.1,1
TIME 0000000e 1568048221.2,1
TIME 0000000e 1568048222.1,1
TIME 0000000e 1568048222.2,1
TIME 0000000e 1568048223.1,1
TIME 0000000e 1568048223.2,1
TIME 0000000e 1568048224.1,1
TIME 0000000e 1568048224.2,1
TIME 0000000e 1568048225.1,1
TIME 0000000e 1568048225.2,1
TIME 0000000e 1568048226.1,1
TIME 0000000e 1568048226.2,1
TIME 0000000e 1568048227.1,1
TIME 0000000e 1568048227.2,1
TIME 0000000e 1568048228.1,1
TIME 0000000e 1568048228.2,1
TIME 0000000e 1568048229.1,1
TIME 0000000e 1568048229.2,1
TIME 0000000e 1568048230.1,1
TIME 0000000e 1568048230.2,1
TIME 0000000e 1568048231.1,1
TIME 0000000e 1568048231.2,1
TIME 0000000e 1568048232.1,1
TIME 0000000e 1568048232.2,1
TIME 0000000e 1568048233.1,1
TIME 0000000e 1568048233.2,1
TIME 0000000e 1568048234.1,1
TIME 0000000e 1568048234.2,1
TIME 0000000e 1568048235.1,1
TIME 0000000e 1568048235.2,1
TIME 0000000e 1568048236.1,1
TIME 0000000e 1568048236.2,1
TIME 0000000e 1568048237.1,1
TIME 0000000e 1568048237.2,1
TIME 0000000e 1568048238.1,1
TIME 0000000e 1568048238.2,1
TIME 0000000e 1568048239.1,1
TIME 0000000e 1568048239.2,1
TIME 0000000e 1568048240.1,1
TIME 0000000e 1568048240.2,1
TIME 0000000e 1568048241.1,1
TIME 0000000e 1568048241.2,1
TIME 0000000e 1568048242.1,1
TIME 0000000e 1568048242.2,1
TIME 0000000e 1568048243.1,1
TIME 0000000e 1568048243.2,1
TIME 0000000e 1568048244.1,1
TIME 0000000e 1568048244.2,1
TIME 0000000e 1568048245.1,1
TIME 0000000e 1568048245.2,1
TIME 0000000e 1568048246.1,1
TIME 0000000e 1568048246.2,1
TIME 0000000e 1568048247.1,1
TIME 0000000e 1568048247.2,1
TIME 0000000e 1568048248.1,1
TIME 0000000e 1568048248.2,1
TIME 0000000e 1568048249.1,1
TIME 0000000e 1568048249.2,1
TIME 0000000e 1568048250.1,1
TIME 0000000e 1568048250.2,1
TIME 0000000e 1568048251.1,1
TIME 0000000e 1568048251.2,1
TIME 0000000e 1568048252.1,1
TIME 0000000e 1568048252.2,1
TIME 0000000e 1568048253.1,1
TIME 0000000e 1568048253.2,1
TIME 0000000e 1568048254.1,1
TIME 0000000e 1568048254.2,1
TIME 0000000e 1568048255.1,1
TIME 0000000e 1568048255.2,1
TIME 0000000e 1568048256.1,1
TIME 0000000e 1568048256.2,1
TIME 0000000e 1568048257.1,1
TIME 0000000e 1568048257.2,1
TIME 0000000e 1568048258.1,1
TIME 0000000e 1568048258.2,1
TIME 0000000e 1568048259.1,1
TIME 0000000e 1568048259.2,1
TIME 0000000e 1568048260.1,1
TIME 0000000e 1568048260.2,1
TIME 0000000e 1568048261.1,1
TIME 0000000e 1568048261.2,1
TIME 0000000e 1568048262.1,1
TIME 0000000e 1568048262.2,1
TIME 0000000e 1568048263.1,1
TIME 0000000e 1568048263.2,1
TIME 0000000e 1568048264.1,1
TIME 0000000e 1568048264.2,1
TIME 0000000e 1568048265.1,1
TIME 0000000e 1568048265.2,1
TIME 0000000e 1568048266.1,1
TIME 0000000e 1568048266.2,1
TIME 0000000e 1568048267.1,1
TIME 0000000e 1568048267.2,1
TIME 0000000e 1568048268.1,1
TIME 0000000e 1568048268.2,1
TIME 0000000e 1568048269.1,1
TIME 0000000e 1568048269.2,1
TIME 0000000e 1568048270.1,1
TIME 0000000e 1568048270.2,1
TIME 0000000e 1568048271.1,1
TIME 0000000e 1568048271.2,1
TIME 0000000e 1568048272.1,1
TIME 0000000e 1568048272.2,1
TIME 0000000e 1568048273.1,1
TIME 0000000e 1568048273.2,1
TIME 0000000e 1568048274.1,1
TIME 0000000e 1568048274.2,1
TIME 0000000e 1568048275.1,1
TIME 0000000e 1568048275.2,1
TIME 0000000e 1568048276.1,1
TIME 0000000e 1568048276.2,1
TIME 0000000e 1568048277.1,1
TIME 0000000e 1568048277.2,1
TIME 0000000e 1568048278.1,1
TIME 0000000e 1568048278.2,1
TIME 0000000e 1568048279.1,1
TIME 0000000e 1568048279.2,1
TIME 0000000e 1568048280.1,1
TIME 0000000e 1568048280.2,1
TIME 0000000e 1568048281.1,1
TIME 0000000e 1568048281.2,1
TIME 0000000e 1568048282.1,1
TIME 0000000e 1568048282.2,1
TIME 0000000e 1568048283.1,1
TIME 0000000e 1568048283.2,1
TIME 0000000e 1568048284.1,1
TIME 0000000e 1568048284.2,1
TIME 0000000e 1568048285.1,1
TIME 0000000e 1568048285.2,1
TIME 0000000e 1568048286.1,1
TIME 0000000e 1568048286.2,1
TIME 0000000e 1568048287.1,1
TIME 0000000e 1568048287.2,1
TIME 0000000e 1568048288.1,1
TIME 0000000e 1568048288.2,1
TIME 0000000e 1568048289.1,1
TIME 0000000e 1568048289.2,1
TIME 0000000e 1568048290.1,1
TIME 0000000e 1568048290.2,1
TIME 0000000e 1568048291.1,1
TIME 0000000e 1568048291.2,1
TIME 0000000e 1568048292.1,1
TIME 0000000e 1568048292.2,1
TIME 0000000e 1568048293.1,1
TIME 0000000e 1568048293.2,1
TIME 0000000e 1568048294.1,1
TIME 0000000e 1568048294.2,1
TIME 0000000e 1568048295.1,1
TIME 0000000e 1568048295.2,1
TIME 0000000e 1568048296.1,1
TIME 0000000e 1568048296.2,1
TIME 0000000e 1568048297.1,1
TIME 0000000e 1568048297.2,1
TIME 0000000e 1568048298.1,1
TIME 0000000e 1568048298.2,1
TIME 0000000e 1568048299.1,1
TIME 0000000e 1568048299.2,1
TIME 0000000e 1568048300.1,1
TIME 0000000e 1568048300.2,1
TIME 0000000e 1568048301.1,1
TIME 0000000e 1568048301.2,1
TIME 0000000e 1568048302.1,1
TIME 0000000e 1568048302.2,1
TIME 0000000e 1568048303.1,1
TIME 0000000e 1568048303.2,1
TIME 0000000e 1568048304.1,1
TIME 0000000e 1568048304.2,1
TIME 0000000e 1568048305.1,1
TIME 0000000e 1568048305.2,1
TIME 0000000e 1568048306.1,1
TIME 0000000e 1568048306.2,1
TIME 0000000e 1568048307.1,1
TIME 0000000e 1568048307.2,1
TIME 0000000e 1568048308.1,1
TIME 0000000e 1568048308.2,1
TIME 0000000e 1568048309.1,1
TIME 0000000e 1568048309.2,1
TIME 0000000e 1568048310.1,1
TIME 0000000e 1568048310.2,1
TIME 0000000e 1568048311.1,1
TIME 0000000e 1568048311.2,1
TIME 0000000e 1568048312.1,1
TIME 0000000e 1568048312.2,1
TIME 0000000e 1568048313.1,1
TIME 0000000e 1568048313.2,1
TIME 0000000e 1568048314.1,1
TIME 0000000e 1568048314.2,1
TIME 0000000e 1568048315.1,1
TIME 0000000e 1568048315.2,1
TIME 0000000e 1568048316.1,1
TIME 0000000e 1568048316.2,1
TIME 0000000e 1568048317.1,1
TIME 0000000e 1568048317.2,1
TIME 0000000e 1568048318.1,1
TIME 0000000e 1568048318.2,1
TIME 0000000e 1568048319.1,1
TIME 0000000e 1568048319.2,1
TIME 0000000e 1568048320.1,1
TIME 0000000e 1568048320.2,1
TIME 0000000e 1568048321.1,1
TIME 0000000e 1568048321.2,1
TIME 0000000e 1568048322.1,1
TIME 0000000e 1568048322.2,1
TIME 0000000e 1568048323.1,1
TIME 0000000e 1568048323.2,1
TIME 0000000e 1568048324.1,1
TIME 0000000e 1568048324.2,1
TIME 0000000e 1568048325.1,1
TIME 0000000e 1568048325.2,1
TIME 0000000e 1568048326.1,1
TIME 0000000e 1568048326.2,1
TIME 0000000e 1568048327.1,1
TIME 0000000e 1568048327.2,1
TIME 0000000e 1568048328.1,1
TIME 0000000e 1568048328.2,1
TIME 0000000e 1568048329.1,1
TIME 0000000e 1568048329.2,1
TIME 0000000e 1568048330.1,1
TIME 0000000e 1568048330.2,1
TIME 0000000e 1568048331.1,1
TIME 0000000e 1568048331.2,1
TIME 0000000e 1568048332.1,1
TIME 0000000e 1568048332.2,1
TIME 0000000e 1568048333.1,1
TIME 0000000e 1568048333.2,1
TIME 0000000e 1568048334.1,1
TIME 0000000e 1568048334.2,1
TIME 0000000e 1568048335.1,1
TIME 0000000e 1568048335.2,1
TIME 0000000e 1568048336.1,1
TIME 0000000e 1568048336.2,1
TIME 0000000e 1568048337.1,1
TIME 0000000e 1568048337.2,1
TIME 0000000e 1568048338.1,1
TIME 0000000e 1568048338.2,1
TIME 0000000e 1568048339.1,1
TIME 0000000e 1568048339.2,1
TIME 0000000e 1568048340.1,1
TIME 0000000e 1568048340.2,1
TIME 0000000e 1568048341.1,1
TIME 0000000e 1568048341.2,1
TIME 0000000e 1568048342.1,1
TIME 0000000e 1568048342.2,1
TIME 0000000e 1568048343.1,1
TIME 0000000e 1568048343.2,1
TIME 0000000e 1568048344.1,1
TIME 0000000e 1568048344.2,1
TIME 0000000e 1568048345.1,1
TIME 0000000e 1568048345.2,1
TIME 0000000e 1568048346.1,1
TIME 0000000e 1568048346.2,1
TIME 0000000e 1568048347.1,1
TIME 0000000e 1568048347.2,1
TIME 0000000e 1568048348.1,1
TIME 0000000e 1568048348.2,1
TIME 0000000e 1568048349.1,1
TIME 0000000e 1568048349.2,1
TIME 0000000e 1568048350.1,1
TIME 0000000e 1568048350.2,1
TIME 0000000e 1568048351.1,1
TIME 0000000e 1568048351.2,1
TIME 0000000e 1568048352.1,1
TIME 0000000e 1568048352.2,1
TIME 0000000e 1568048353.1,1
TIME 0000000e 1568048353.2,1
TIME 0000000e 1568048354.1,1
TIME 0000000e 1568048354.2,1
TIME 0000000e 1568048355.1,1
TIME 0000000e 1568048355.2,1
TIME 0000000e 1568048356.1,1
TIME 0000000e 1568048356.2,1
TIME 0000000e 1568048357.1,1
TIME 0000000e 1568048357.2,1
TIME 0000000e 1568048358.1,1
TIME 0000000e 1568048358.2,1
TIME 0000000e 1568048359.1,1
TIME 0000000e 1568048359.2,1
TIME 0000000e 1568048360.1,1
TIME 0000000e 1568048360.2,1
TIME 0000000e 1568048361.1,1
TIME 0000000e 1568048361.2,1
TIME 0000000e 1568048362.1,1
TIME 0000000e 1568048362.2,1
TIME 0000000e 1568048363.1,1
TIME 0000000e 1568048363.2,1
TIME 0000000e 1568048364.1,1
TIME 0000000e 1568048364.2,1
TIME 0000000e 1568048365.1,1
TIME 0000000e 1568048365.2,1
TIME 0000000e 1568048366.1,1
TIME 0000000e 1568048366.2,1
TIME 0000000e 1568048367.1,1
TIME 0000000e 1568048367.2,1
TIME 0000000e 1568048368.1,1
TIME 0000000e 1568048368.2,1
TIME 0000000e 1568048369.1,1
TIME 0000000e 1568048369.2,1
TIME 0000000e 1568048370.1,1
TIME 0000000e 1568048370.2,1
TIME 0000000e 1568048371.1,1
TIME 0000000e 1568048371.2,1
TIME 0000000e 1568048372.1,1
TIME 0000000e 1568048372.2,1
TIME 0000000e 1568048373.1,1
TIME 0000000e 1568048373.2,1
TIME 0000000e 1568048374.1,1
TIME 0000000e 1568048374.2,1
TIME 0000000e 1568048375.1,1
TIME 0000000e 1568048375.2,1
TIME 0000000e 1568048376.1,1
TIME 0000000e 1568048376.2,1
TIME 0000000e 1568048377.1,1
TIME 0000000e 1568048377.2,1
TIME 0000000e 1568048378.1,1
TIME 0000000e 1568048378.2,1
TIME 0000000e 1568048379.1,1
TIME 0000000e 1568048379.2,1
TIME 0000000e 1568048380.1,1
TIME 0000000e 1568048380.2,1
TIME 0000000e 1568048381.1,1
TIME 0000000e 1568048381.2,1
TIME 0000000e 1568048382.1,1
TIME 0000000e 1568048382.2,1
TIME 0000000e 1568048383.1,1
TIME 0000000e 1568048383.2,1
TIME 0000000e 1568048384.1,1
TIME 0000000e 1568048384.2,1
TIME 0000000e 1568048385.1,1
TIME 0000000e 1568048385.2,1
TIME 0000000e 1568048386.1,1
TIME 0000000e 1568048386.2,1
TIME 0000000e 1568048387.1,1
TIME 0000000e 1568048387.2,1
TIME 0000000e 1568048388.1,1
TIME 0000000e 1568048388.2,1
TIME 0000000e 1568048389.1,1
TIME 0000000e 1568048389.2,1
TIME 0000000e 1568048390.1,1
TIME 0000000e 1568048390.2,1
TIME 0000000e 1568048391.1,1
TIME 0000000e 1568048391.2,1
TIME 0000000e 1568048392.1,1
TIME 0000000e 1568048392.2,1
TIME 0000000e 1568048393.1,1
TIME 0000000e 1568048393.2,1
TIME 0000000e 1568048394.1,1
TIME 0000000e 1568048394.2,1
TIME 0000000e 1568048395.1,1
TIME 0000000e 1568048395.2,1
TIME 0000000e 1568048396.1,1
TIME 0000000e 1568048396.2,1
TIME 0000000e 1568048397.1,1
TIME 0000000e 1568048397.2,1
TIME 0000000e 1568048398.1,1
TIME 0000000e 1568048398.2,1
TIME 0000000e 1568048399.1,1
TIME 0000000e 1568048399.2,1
TIME 0000000e 1568048400.1,1
TIME 0000000e 1568048400.2,1
TIME 0000000e 1568048401.1,1
TIME 0000000e 1568048401.2,1
TIME 0000000e 1568048402.1,1
TIME 0000000e 1568048402.2,1
TIME 0000000e 1568048403.1,1
TIME 0000000e 1568048403.2,1
TIME 0000000e 1568048404.1,1
TIME 0000000e 1568048404.2,1
TIME 0000000e 1568048405.1,1
TIME 0000000e 1568048405.2,1
TIME 0000000e 1568048406.1,1
TIME 0000000e 1568048406.2,1
TIME 0000000e 1568048407.1,1
TIME 0000000e 1568048407.2,1
TIME 0000000e 1568048408.1,1
TIME 0000000e 1568048408.2,1
TIME 0000000e 1568048409.1,1
TIME 0000000e 1568048409.2,1
TIME 0000000e 1568048410.1,1
TIME 0000000e 1568048410.2,1
TIME 0000000e 1568048411.1,1
TIME 0000000e 1568048411.2,1
TIME 0000000e 1568048412.1,1
TIME 0000000e 1568048412.2,1
TIME 0000000e 1568048413.1,1
TIME 0000000e 1568048413.2,1
TIME 0000000e 1568048414.1,1
TIME 0000000e 1568048414.2,1
TIME 0000000e 1568048415.1,1
TIME 0000000e 1568048415.2,1
TIME 0000000e 1568048416.1,1
TIME 0000000e 1568048416.2,1
TIME 0000000e 1568048417.1,1
TIME 0000000e 1568048417.2,1
TIME 0000000e 1568048418.1,1
TIME 0000000e 1568048418.2,1
TIME 0000000e 1568048419.1,1
TIME 0000000e 1568048419.2,1
TIME 0000000e 1568048420.1,1
TIME 0000000e 1568048420.2,1
TIME 0000000e 1568048421.1,1
TIME 0000000e 1568048421.2,1
TIME 0000000e 1568048422.1,1
TIME 0000000e 1568048422.2,1
TIME 0000000e 1568048423.1,1
TIME 0000000e 1568048423.2,1
TIME 0000000e 1568048424.1,1
TIME 0000000e 1568048424.2,1
TIME 0000000e 1568048425.1,1
TIME 0000000e 1568048425.2,1
TIME 0000000e 1568048426.1,1
TIME 0000000e 1568048426.2,1
TIME 0000000e 1568048427.1,1
TIME 0000000e 1568048427.2,1
TIME 0000000e 1568048428.1,1
TIME 0000000e 1568048428.2,1
TIME 0000000e 1568048429.1,1
TIME 0000000e 1568048429.2,1
TIME 0000000e 1568048430.1,1
TIME 0000000e 1568048430.2,1
TIME 0000000e 1568048431.1,1
TIME 0000000e 1568048431.2,1
TIME 0000000e 1568048432.1,1
TIME 0000000e 1568048432.2,1
TIME 0000000e 1568048433.1,1
TIME 0000000e 1568048433.2,1
TIME 0000000e 1568048434.1,1
TIME 0000000e 1568048434.2,1
TIME 0000000e 1568048435.1,1
TIME 0000000e 1568048435.2,1
TIME 0000000e 1568048436.1,1
TIME 0000000e 1568048436.2,1
TIME 0000000e 1568048437.1,1
TIME 0000000e 1568048437.2,1
TIME 0000000e 1568048438.1,1
TIME 0000000e 1568048438.2,1
TIME 0000000e 1568048439.1,1
TIME 0000000e 1568048439.2,1
TIME 0000000e 1568048440.1,1
TIME 0000000e 1568048440.2,1
TIME 0000000e 1568048441.1,1
TIME 0000000e 1568048441.2,1
TIME 0000000e 1568048442.1,1
TIME 0000000e 1568048442.2,1
TIME 0000000e 1568048443.1,1
TIME 0000000e 1568048443.2,1
TIME 0000000e 1568048444.1,1
TIME 0000000e 1568048444.2,1
TIME 0000000e 1568048445.1,1
TIME 0000000e 1568048445.2,1
TIME 0000000e 1568048446.1,1
TIME 0000000e 1568048446.2,1
TIME 0000000e 1568048447.1,1
TIME 0000000e 1568048447.2,1
TIME 0000000e 1568048448.1,1
TIME 0000000e 1568048448.2,1
TIME 0000000e 1568048449.1,1
TIME 0000000e 1568048449.2,1
TIME 0000000e 1568048450.1,1
TIME 0000000e 1568048450.2,1
TIME 0000000e 1568048451.1,1
TIME 0000000e 1568048451.2,1
TIME 0000000e 1568048452.1,1
TIME 0000000e 1568048452.2,1
TIME 0000000e 1568048453.1,1
TIME 0000000e 1568048453.2,1
TIME 0000000e 1568048454.1,1
TIME 0000000e 1568048454.2,1
TIME 0000000e 1568048455.1,1
TIME 0000000e 1568048455.2,1
TIME 0000000e 1568048456.1,1
TIME 0000000e 1568048456.2,1
TIME 0000000e 1568048457.1,1
TIME 0000000e 1568048457.2,1
TIME 0000000e 1568048458.1,1
TIME 0000000e 1568048458.2,1
TIME 0000000e 1568048459.1,1
TIME 0000000e 1568048459.2,1
TIME 0000000e 1568048460.1,1
TIME 0000000e 1568048460.2,1
TIME 0000000e 1568048461.1,1
TIME 0000000e 1568048461.2,1
TIME 0000000e 1568048462.1,1
TIME 0000000e 1568048462.2,1
TIME 0000000e 1568048463.1,1
TIME 0000000e 1568048463.2,1
TIME 0000000e 1568048464.1,1
TIME 0000000e 1568048464.2,1
TIME 0000000e 1568048465.1,1
TIME 0000000e 1568048465.2,1
TIME 0000000e 1568048466.1,1
TIME 0000000e 1568048466.2,1
TIME 0000000e 1568048467.1,1
TIME 0000000e 1568048467.2,1
TIME 0000000e 1568048468.1,1
TIME 0000000e 1568048468.2,1
TIME 0000000e 1568048469.1,1
TIME 0000000e 1568048469.2,1
TIME 0000000e 1568048470.1,1
TIME 0000000e 1568048470.2,1
TIME 0000000e 1568048471.1,1
TIME 0000000e 1568048471.2,1
TIME 0000000e 1568048472.1,1
TIME 0000000e 1568048472.2,1
TIME 0000000e 1568048473.1,1
TIME 0000000e 1568048473.2,1
TIME 0000000e 1568048474.1,1
TIME 0000000e 1568048474.2,1
TIME 0000000e 1568048475.1,1
TIME 0000000e 1568048475.2,1
TIME 0000000e 1568048476.1,1
TIME 0000000e 1568048476.2,1
TIME 0000000e 1568048477.1,1
TIME 0000000e 1568048477.2,1
TIME 0000000e 1568048478.1,1
TIME 0000000e 1568048478.2,1
TIME 0000000e 1568048479.1,1
TIME 0000000e 1568048479.2,1
TIME 0000000e 1568048480.1,1
TIME 0000000e 1568048480.2,1
TIME 0000000e 1568048481.1,1
TIME 0000000e 1568048481.2,1
TIME 0000000e 1568048482.1,1
TIME 0000000e 1568048482.2,1
TIME 0000000e 1568048483.1,1
TIME 0000000e 1568048483.2,1
TIME 0000000e 1568048484.1,1
TIME 0000000e 1568048484.2,1
TIME 0000000e 1568048485.1,1
TIME 0000000e 1568048485.2,1
TIME 0000000e 1568048486.1,1
TIME 0000000e 1568048486.2,1
TIME 0000000e 1568048487.1,1
TIME 0000000e 1568048487.2,1
TIME 0000000e 1568048488.1,1
TIME 0000000e 1568048488.2,1
TIME 0000000e 1568048489.1,1
TIME 0000000e 1568048489.2,1
TIME 0000000e 1568048490.1,1
TIME 0000000e 1568048490.2,1
TIME 0000000e 1568048491.1,1
TIME 0000000e 1568048491.2,1
TIME 0000000e 1568048492.1,1
TIME 0000000e 1568048492.2,1
TIME 0000000e 1568048493.1,1
TIME 0000000e 1568048493.2,1
TIME 0000000e 1568048494.1,1
TIME 0000000e 1568048494.2,1
TIME 0000000e 1568048495.1,1
TIME 0000000e 1568048495.2,1
TIME 0000000e 1568048496.1,1
TIME 0000000e 1568048496.2,1
TIME 0000000e 1568048497.1,1
TIME 0000000e 1568048497.2,1
TIME 0000000e 1568048498.1,1
TIME 0000000e 1568048498.2,1
TIME 0000000e 1568048499.1,1
TIME 0000000e 1568048499.2,1
TIME 0000000e 1568048500.1,1
TIME 0000000e 1568048500.2,1
TIME 0000000e 1568048501.1,1
TIME 0000000e 1568048501.2,1
TIME 0000000e 1568048502.1,1
TIME 0000000e 1568048502.2,1
TIME 0000000e 1568048503.1,1
TIME 0000000e 1568048503.2,1
TIME 0000000e 1568048504.1,1
TIME 0000000e 1568048504.2,1
TIME 0000000e 1568048505.1,1
TIME 0000000e 1568048505.2,1
TIME 0000000e 1568048506.1,1
TIME 0000000e 1568048506.2,1
TIME 0000000e 1568048507.1,1
TIME 0000000e 1568048507.2,1
TIME 0000000e 1568048508.1,1
TIME 0000000e 1568048508.2,1
TIME 0000000e 1568048509.1,1
TIME 0000000e 1568048509.2,1
TIME 0000000e 1568048510.1,1
TIME 0000000e 1568048510.2,1
TIME 0000000e 1568048511.1,1
TIME 0000000e 1568048511.2,1
TIME 0000000e 1568048512.1,1
TIME 0000000e 1568048512.2,1
TIME 0000000e 1568048513.1,1
TIME 0000000e 1568048513.2,1
TIME 0000000e 1568048514.1,1
TIME 0000000e 1568048514.2,1
TIME 0000000e 1568048515.1,1
TIME 0000000e 1568048515.2,1
TIME 0000000e 1568048516.1,1
TIME 0000000e 1568048516.2,1
TIME 0000000e 1568048517.1,1
TIME 0000000e 1568048517.2,1
TIME 0000000e 1568048518.1,1
TIME 0000000e 1568048518.2,1
TIME 0000000e 1568048519.1,1
TIME 0000000e 1568048519.2,1
TIME 0000000e 1568048520.1,1
TIME 0000000e 1568048520.2,1
TIME 0000000e 1568048521.1,1
TIME 0000000e 1568048521.2,1
TIME 0000000e 1568048522.1,1
TIME 0000000e 1568048522.2,1
TIME 0000000e 1568048523.1,1
TIME 0000000e 1568048523.2,1
TIME 0000000e 1568048524.1,1
TIME 0000000e 1568048524.2,1
TIME 0000000e 1568048525.1,1
TIME 0000000e 1568048525.2,1
TIME 0000000e 1568048526.1,1
