VERS 00000001 5
HEAD 0000131e <?xml version="1.0"?>
<?xml-stylesheet type="text/xsl" href="/resources/transform.xslt"?><header><componentName>correlator</componentName><version>10.5.0.0.357639</version><build>rel/10.5.0.x@357639</build><buildPlatform>amd64-win</buildPlatform><platform>Windows 10 Enterprise</platform><cputype>GenuineIntel family 6 model 14 stepping 3 Intel(R) Core(TM) i7-6600U CPU @ 2.60GHz</cputype><cpus name="cpus">4.00</cpus><javaEnabled>true</javaEnabled><replayLogMode>inputLog</replayLogMode><args><arg>C:\dev\apama_win_full_latest\Apama\bin\correlator.exe</arg><arg>--config</arg><arg>C:\Users\y508970\workspace105\CoffeeFactoryDataSimulator\config\CorrelatorConfig.yaml</arg><arg>--port</arg><arg>15904</arg><arg>--loglevel</arg><arg>INFO</arg><arg>--name</arg><arg>Apama Designer Correlator for CoffeeFactoryDataSimulator(CoffeeFactoryDataSimulator:Correlator2)</arg><arg>-j</arg><arg>--inputLog</arg><arg>logs/Correlator2_${START_TIME}_${ID}.input.log</arg></args><environment><variable>ALLUSERSPROFILE=C:\ProgramData</variable><variable>APAMA_HOME=C:\dev\apama_win_full_latest\Apama</variable><variable>APAMA_WORK=C:\Users\Public\SoftwareAG\ApamaWork_10.5</variable><variable>APPDATA=C:\Users\y508970\AppData\Roaming</variable><variable>COMMONPROGRAMFILES=C:\Program Files\Common Files</variable><variable>COMMONPROGRAMFILES(X86)=C:\Program Files (x86)\Common Files</variable><variable>COMMONPROGRAMW6432=C:\Program Files\Common Files</variable><variable>COMPUTERNAME=SAG-98V9PF2</variable><variable>COMSPEC=C:\Windows\system32\cmd.exe</variable><variable>DEFLOGDIR=C:\ProgramData\McAfee\Endpoint Security\Logs</variable><variable>DRIVERDATA=C:\Windows\System32\Drivers\DriverData</variable><variable>EMPIRUMSERVER=cukuni02.eur.ad.sag</variable><variable>EMPIRUMSERVICEPARTITION=0</variable><variable>EMPSRVLONG=cukuni02.eur.ad.sag</variable><variable>HOMEDRIVE=C:</variable><variable>HOMEPATH=\Users\y508970</variable><variable>LOCALAPPDATA=C:\Users\y508970\AppData\Local</variable><variable>LOGONSERVER=\\CUKDC85</variable><variable>NUMBER_OF_PROCESSORS=4</variable><variable>ONEDRIVE=C:\Users\y508970\OneDrive - Software AG</variable><variable>ONEDRIVECOMMERCIAL=C:\Users\y508970\OneDrive - Software AG</variable><variable>OS=Windows_NT</variable><variable>PATH=C:\dev\apama_win_full_latest\Apama\..\jvm\jvm\jre\bin\server;C:\dev\apama_win_full_latest\Apama\..\jvm\jvm\jre\bin;C:\dev\apama_win_full_latest\Apama\bin;C:\dev\apama_win_full_latest\Apama\..\common\security\openssl\bin;C:\Users\Public\SoftwareAG\ApamaWork_10.5\lib;C:\dev\apama_win_full_latest\Apama\..\jvm\jvm\jre\bin;C:\dev\apama_win_full_latest\Apama\..\jvm\jvm\jre\bin\server;C:\dev\apama_win_full_latest\Apama\..\UniversalMessaging\cplus\lib\x86_64;C:\dev\apama_win_full_latest\Apama\bin;C:\Windows\system32;C:\Windows;C:\Windows\System32\Wbem;C:\Windows\System32\WindowsPowerShell\v1.0\;C:\Windows\System32\OpenSSH\;C:\Program Files\Intel\WiFi\bin\;C:\Program Files\Common Files\Intel\WirelessCommon\;C:\Program Files (x86)\Intel\Intel(R) Management Engine Components\DAL;C:\Program Files\Intel\Intel(R) Management Engine Components\DAL;C:\Program Files\PuTTY\;C:\Program Files\SlikSvn\bin;C:\Program Files\dotnet\;C:\Program Files\Microsoft SQL Server\130\Tools\Binn\;C:\Program Files\TortoiseSVN\bin;C:\Program Files\TortoiseGit\bin;C:\Users\y508970\AppData\Local\Microsoft\WindowsApps;C:\Users\y508970\AppData\Local\Programs\Git\cmd;C:\Users\y508970\AppData\Local\GitHubDesktop\bin</variable><variable>PATHEXT=.COM;.EXE;.BAT;.CMD;.VBS;.VBE;.JS;.JSE;.WSF;.WSH;.MSC</variable><variable>PROCESSOR_ARCHITECTURE=AMD64</variable><variable>PROCESSOR_IDENTIFIER=Intel64 Family 6 Model 78 Stepping 3, GenuineIntel</variable><variable>PROCESSOR_LEVEL=6</variable><variable>PROCESSOR_REVISION=4e03</variable><variable>PROGRAMDATA=C:\ProgramData</variable><variable>PROGRAMFILES=C:\Program Files</variable><variable>PROGRAMFILES(X86)=C:\Program Files (x86)</variable><variable>PROGRAMW6432=C:\Program Files</variable><variable>PROMPT=$P$G</variable><variable>PSMODULEPATH=C:\Program Files\WindowsPowerShell\Modules;C:\Windows\system32\WindowsPowerShell\v1.0\Modules;C:\Program Files\Barracuda\Network Access Client\Modules</variable><variable>PUBLIC=C:\Users\Public</variable><variable>SESSIONNAME=Console</variable><variable>SSL_CERT_FILE=C:\dev\apama_win_full_latest\Apama\..\common\security\openssl\cert.pem</variable><variable>SYSTEMDRIVE=C:</variable><variable>SYSTEMROOT=C:\Windows</variable><variable>TEMP=C:\Users\y508970\AppData\Local\Temp</variable><variable>TMP=C:\Users\y508970\AppData\Local\Temp</variable><variable>USERDNSDOMAIN=EUR.AD.SAG</variable><variable>USERDOMAIN=EUR</variable><variable>USERDOMAIN_ROAMINGPROFILE=EUR</variable><variable>USERNAME=y508970</variable><variable>USERPROFILE=C:\Users\y508970</variable><variable>WINDIR=C:\Windows</variable></environment><version>10.5.0.0.357639</version></header>
YAML 000004a7 ###############################################################################
# $Copyright (c) 2016 Software AG, Darmstadt, Germany and/or Software AG USA Inc., Reston, VA, USA, and/or its subsidiaries and/or its affiliates and/or their licensors.$
# Use, reproduction, transfer, publication or disclosure is prohibited except as specifically provided for in your License Agreement with Software AG
###############################################################################

#To set the default log file and level for an EPL package, monitor, or event, specify
# logging details in the eplLogging section of the YAML configuration file.
#For example:
#eplLogging:
#  com.myCompany.Client:
#    file: apama/Client.log
#    level: DEBUG
#  com.myCompany.Internal: { level: ERROR }


#See the information on setting log files and log levels in a YAML configuration file in the documentation for more
# information about the supported options.
#To enable use of this file when you launch this project from Designer, edit the project's run/launch configuration,
#open the correlator, and tick the "Configuration" checkbox next to the textbox that names this .yaml file.
 00000055 C:\Users\y508970\workspace105\CoffeeFactoryDataSimulator\config\CorrelatorConfig.yaml
RAND 00000009 447329945
TIME 00000010 1568110395.369,1
CONN 0000003c 1907214234774601728:1921279423585779712 from 127.0.0.1:54540
TIME 0000000e 1568110396.6,1
MONF 00001379 
/** This event consists of events full of constants which are used in the RoastDrum.mon file */

event BeanColor{
	constant integer VERY_LIGHT := 90;
	constant integer LIGHT := 80;
	constant integer YELLOW := 70;
	constant integer BROWN := 60;
	constant integer VERY_BROWN := 40;
	constant integer BLACK := 20;
}

event AlertType{
	constant integer IMMINENT_FIRE := 1;
	constant integer FIRST_CRACK := 2;
	constant integer BROWN_STAGE := 3;
	constant integer FULL_CITY := 4;
	constant integer VIENA_COFFEE := 5;
	constant integer FULL_FRENCH := 6;
}

event BeanColorVolt{
	constant float MAXIMUM := 100.0; // = 10Volt DC -> green bean;
	constant float MINIMUM := 10.0; // = 1Volt DC -> extremely dark black bean;
}

event BeanTemp{
	// ALL values below are temperatures in celsius.
	//The names of the constants represent the color of the beans at the specific temperatures;
	constant float PALE := 131.0;
	constant integer LIGHT_BROWN := 198;
	constant integer MEDIUM_LIGHT_BROWN := 207;
	constant integer FULL_MEDIUM := 218;
	constant integer MEDIUM_DARK_BROWN := 223;
	constant integer DARK_BROWN := 229;
	constant integer VERY_DARK := 243;
	
}

event FreezerTemp{
	constant float RANDOM_FLUCTUATION_NUMBER := 1.5;
}

event FreezerDryer{ //TODO change name;
	constant float RANDOM_FLUCTUATION_NUMBER := 1.9;
	constant float MINIMUM_MOISTURE := 0.0;
}

event UserStatus{
	//The values represent the names of the queries that are passed to Prometheus
	//from which Grafana request them and uses their data;
	//Variables below are used in RoastDrum.mon
	constant string DRUM := "drum";
	constant string BEAN_COLOR := "beanColor";
	constant string BEAN_ILLUSTRATOR := "beanIllustrator";
	constant string ALERT := "alert";
	
	//Variables below are used in Extractor.mon
	constant string CAFFEINE := "caffeine";
	constant string VOLATILE_OILS := "volatileOils";
	constant string ORGANIC_ACIDS := "organicAcids";
	constant string EXTRACTOR_TEMP := "extractorTemp";
	constant string COFFEE_TO_WATER_RATIO := "coffeeToWater";
	
	constant string FREEZER_TEMP := "freezerTemp";
	
	constant string MOISTURE := "moisture";
}

event Channel{
	constant string ROAST := "roastChannel";
	constant string EXTRACTOR := "extractorChannel";
	constant string FREEZE := "freezeChannel";
	constant string FREEZE_DRYER := "freezeDryerChannel";
}

event Caffeine{
	// default values used to increase/decrease the height/length of the caffeine graph;
	constant float GRAPH_HEIGHT := 7.7;
	constant float GRAPH_LENGTH := 0.188;
}

event VolatileOils{
	// default values used to increase/decrease the height/length of the volatile oils graph;
	constant float GRAPH_HEIGHT := 5.19;
	constant float GRAPH_LENGTH := 0.0415;
}

event OrganicAcids{
	// default values used to increase/decrease the height/length of the organic graph;
	constant float GRAPH_HEIGHT := 3.11;
	constant float GRAPH_LENGTH := 0.0197;
}

event Math{
	constant float CUBED := 3.0;
	constant float PLANCK_FORMULA_SUBTRACTOR := -1.0; // bl
}

event Message{
	constant string LOADED_ROAST_SIMULATOR := "Loaded monitor RoastSimulator";
	constant string LOADED_EXTRACT_SIMULATOR := "Loaded monitor ExtractorSimulator";
	constant string LOADED_FREEZER_SIMULATOR := "Loaded monitor FreezerSimulator";
	constant string LOADED_FREEZE_DRYER_SIMULATOR := "Loaded monitor FreezerDryerSimulator";
}

event Time{
	constant float ADD_SECOND := 1.0;
}

event ExtractionBounds{ // bounds within the graph
	constant float MAXIMUM := 110.0;
	constant float MINIMUM := 0.0;
}

event Delay{
	constant float ONE_SECOND := 1.0;
	constant float TWO_SECONDS := 2.0;
	constant float THREE_SECONDS := 3.0;
}

event Temperature{
	constant float PREHEAT_NUMBER := 13.1; //A random number; The random number has to be lower than 20 and higher than 10;
	constant float DRUM_MINIMUM := 0.0;
	constant float IMMINENT_FIRE := 258.0; // temperature at which the beans will start going on fire;
	
	constant float EXTRACTOR_INITIAL := 140.0; // random number between 130 and 150;
	//Has to differ from the starting drum temp in RoastDrum because it looks better on Grafana;
	constant float EXTRACTOR_PREHEAT := 12.1;  //A random number; The random number has to be lower than 20 and higher than 10;
	
	constant float FREEZER_MAX := -60.0;
	constant float FREEZER_MIN := -20.0;
}

event ColorScheme{
	constant integer SIZE := 50; // the size of the color scheme graph on Grafana that is displaying the current color of the beans;
}

event Divider{
	constant integer BY_HALF := 2;
}

event BeanTracker{
	constant float COLOR_CHANGER := 0.9; // 
	constant float COLOR_GATE_ENTRY := 0.4; // representing the percent (e.g. 0.4 = 40%);
}

event BeanRandom{
	constant float TEMP_INCREMENTER := 1.8; // maximum random value;
	constant float GATE_BOUND := 1.0; // representing the maximum percent value(e.g. 1.0 = 100%, 0.9 = 90%);
}
 00000064 C:\Users\y508970\workspace105\CoffeeFactoryDataSimulator\eventdefinitions\CoffeeFactoryConstants.mon
MONF 00000cf1 
/** This monitor is responsible for ...  */

event CaffeineEvent{
	float currentCaffeine;
}

event VolatileOilsEvent{
	float currentVolatileOils;
}

event OrganicAcidsEvent{
	float currentOrganicAcids;
}

event ExtractorTemperature{
	float currentTemperature;
}

monitor ExtractorSimulator {

	float currentCaffeine := 1.0;
	float currentVolatileOils := 3.0;
	float currentOrganicAcids := 8.0;
	float currentTemp := preheatExtractor();
	float currentCoffeeToWaterRatio := 0.0;
	
	boolean highExtractionTemp := false; // used as a gate to decrease the temp;
	boolean lowExtractionTemp := true; // used as a gate to increase the temp;
	
	float caffeineTimeCounter := 0.0;
	float oilsTimeCounter := 0.0;
	float acidsTimeCounter := 0.0;
	
	//Side value => Amount of compound (Unit) - A
	
	action onload() {
		log Message.LOADED_EXTRACT_SIMULATOR at INFO;
		initialize();
	}

	action initialize(){
		implementExtractorTemp();
		extractAll();
	}

	action extractAll(){
		extractCaffeine();
		extractVolatileOils();
		extractOrganicAcids();
	}

	/** 
	...
	*/
	action extractCaffeine(){
		listener listen := on all wait (Delay.ONE_SECOND){
			currentCaffeine := blackBodyFormula(caffeineTimeCounter, Caffeine.GRAPH_HEIGHT, Caffeine.GRAPH_LENGTH);  
			send CaffeineEvent(currentCaffeine) to Channel.EXTRACTOR; 
			caffeineTimeCounter := caffeineTimeCounter + Time.ADD_SECOND;
		}
	}

	/** 
	...
	*/
	action extractVolatileOils(){
		listener listen := on all wait (Delay.ONE_SECOND){		
			currentVolatileOils := blackBodyFormula(oilsTimeCounter, VolatileOils.GRAPH_HEIGHT, VolatileOils.GRAPH_LENGTH);	
			send VolatileOilsEvent(currentVolatileOils) to Channel.EXTRACTOR; 
			oilsTimeCounter := oilsTimeCounter + Time.ADD_SECOND;
		}
	}
	
	/** 
	...
	*/	
	action extractOrganicAcids(){
		listener listen := on all wait (Delay.ONE_SECOND){
			currentOrganicAcids := blackBodyFormula(acidsTimeCounter, OrganicAcids.GRAPH_HEIGHT, OrganicAcids.GRAPH_LENGTH); 
			send OrganicAcidsEvent(currentOrganicAcids) to Channel.EXTRACTOR; 
			acidsTimeCounter := acidsTimeCounter + Time.ADD_SECOND;
		}
	}
	
	/** 
		Increases/decreases the temperature in the extractor drum;
		
	*/
	action implementExtractorTemp(){
		listener listen := on all wait (Delay.TWO_SECONDS){
			float randomTempIncrementor := (2.0).rand(); // TODO FIX MAGIC NUMBER;
			currentTemp := currentTemp + randomTempIncrementor;
			send ExtractorTemperature(currentTemp) to Channel.EXTRACTOR; 
		}
	}
	
	/** 
	@param time = the time that has passed in seconds;
	@param height = increase value for higher function and decrease for lower; 7.7 is a random default value;
	@param length = increase to shrink function, decrease to expand function; 0.188 is a random default value;
	@return Max Planck's formula for Black-body radition
	*/
	action blackBodyFormula(float time, float height, float length) returns float{
		return (height * (length * time).pow(Math.CUBED)) / ( (float.E).pow(length * time) - Math.PLANCK_FORMULA_SUBTRACTOR);
	}
	
	/** 
	...
	*/
	action updateCoffeeToWaterRatio(){	
		//send ... to ...
	}
	
	action preheatExtractor() returns float{
		return (Temperature.EXTRACTOR_PREHEAT).rand() + Temperature.EXTRACTOR_INITIAL;
	}
	
}
 00000058 C:\Users\y508970\workspace105\CoffeeFactoryDataSimulator\monitors\ExtractorSimulator.mon
MONF 000002aa 
/** This monitor is responsible for ...  */

event FreezerDryerEvent{
	float currentMoisture;
}

monitor FreezeDryerSimulator {

	float currentMoisture := 100.0;
	
	action onload() {
		initialize();
	}

	action initialize(){
		log Message.LOADED_FREEZE_DRYER_SIMULATOR at INFO;
		freezeDry();
	}
		
	action freezeDry(){
		listener listen := on all wait (Delay.TWO_SECONDS){
			float random := -(FreezerDryer.RANDOM_FLUCTUATION_NUMBER).rand();
			currentMoisture := currentMoisture + random;
			send FreezerDryerEvent(currentMoisture) to Channel.FREEZE_DRYER;
			log "Simulation FreezerDryer moisture: " + currentMoisture.toString() at INFO;

		}
	}
}
 0000005a C:\Users\y508970\workspace105\CoffeeFactoryDataSimulator\monitors\FreezeDryerSimulator.mon
MONF 0000044f 
/** This monitor is responsible for ...  */

event FreezerTemperature{
	float currentFreezerTemp;
}

monitor FreezerSimulator {
	
	float currentFreezerTemp := -50.0; // default freezer temperature;
	boolean flag := false; //When using the random variable we either decrease or
	//increase the current freezer temperature, using this variable we set the turns;

	action onload() {
		log Message.LOADED_FREEZER_SIMULATOR at INFO;
		freeze();
	}
	
	action freeze(){
		listener listen := on all wait (Delay.THREE_SECONDS){
			float randomTemp := getRandomTemp();	
			currentFreezerTemp := (currentFreezerTemp + randomTemp);
			send FreezerTemperature(currentFreezerTemp) to Channel.FREEZE;
			log "Simulation Freezer temp: " + currentFreezerTemp.toString() at INFO;

		}
	}
	
	action getRandomTemp() returns float{
		float randomTemp := (FreezerTemp.RANDOM_FLUCTUATION_NUMBER).rand();
		// below = take turns adding -> subtracting random values; 
		if flag {
			randomTemp := -randomTemp;
			flag := false;
		}else{
			flag := true;
		}
		return randomTemp;
	}
	
}
 00000056 C:\Users\y508970\workspace105\CoffeeFactoryDataSimulator\monitors\FreezerSimulator.mon
MONF 00000b95 
event ColorTrack{
	float currentBeanVolt;
}

event DrumTemperature{
	float currentDrumTemperature;
}

/** This monitor is responsible for ...  */
monitor RoastDrumSimulator {

	integer beanIllustrator := 1; //parses the number so the program can display the actual color of the bean in a range from 1 to 100; Where 1 is green and very black is 100;
	integer currentBeanTemp := 0; // average temp;

	float currentDrumTemp := preheatDrum(); // default temp in drum before roasting is just below 200, e.g. 190;
	float currentBeanVolt := BeanColorVolt.MAXIMUM; 
	
	boolean highRoastTemp := false; // used as a gate to decrease the temp;
	boolean lowRoastTemp := true; // used as a gate to increase the temp;
	
	action onload() {
		log Message.LOADED_ROAST_SIMULATOR at INFO;
		initialize();
	}

	action initialize(){
			heatDrum();
			colorTrack();
	}
	
	/** 
	@return ...
	*/
	action preheatDrum() returns float{
		return (Temperature.PREHEAT_NUMBER).rand() + BeanTemp.PALE;
	}
	
	/** 
		...
	*/
	action heatDrum(){		
		listener listen := on all wait (Delay.TWO_SECONDS){
			float randomTemp := (BeanRandom.TEMP_INCREMENTER).rand();				
			currentDrumTemp := (currentDrumTemp + randomTemp);
			send DrumTemperature(currentDrumTemp) to Channel.ROAST;
			log "Simulation RoastDrum temp: " + currentDrumTemp.toString() at INFO;

		}
	}	
	
	/** 
		....
	*/
	action colorTrack(){
		listener listen := on all wait (Delay.ONE_SECOND){
			float randomVoltIncrease := (BeanTracker.COLOR_CHANGER).rand(); // the beans spin while in the drum, therefore their temperature might differ slightly. Plus, making the graph more realistic;
			float gate := (BeanRandom.GATE_BOUND).rand();
			integer beanColorIllustrator := getBeanIllustrator(currentBeanVolt);

			implementBeanVolt(gate, randomVoltIncrease);
			send ColorTrack(currentBeanVolt) to Channel.ROAST;
			log "Simulation RoastDrum volt: " + currentBeanVolt.toString() at INFO;
		}
	}
	
	/** 
	@param gate ...
	@param randomVoltIncrease ...
	*/
	action implementBeanVolt(float gate, float randomVoltIncrease){
		if gate <= BeanTracker.COLOR_GATE_ENTRY {
			currentBeanVolt := currentBeanVolt + randomVoltIncrease;
		}else{
			currentBeanVolt := currentBeanVolt - BeanTracker.COLOR_CHANGER; // 0-100 Volts DC; 280 maximum temp in drum -> 280/100 = 2.8; Therefore, 2.8 decrease per degree celsius;
		}
	}
	
	/** 
	@param beanVolt ...
	@return ....
		formula: the color scheme graph contains half the range the beanvolt has
		(i.e. BeanVolt starts at 100 and goes down to 0, colorScheme starts at 0 and goes up to 50).
		Hence, get half of bean volt and remove 50 since the colorScheme operates in the 0-50 range;
	*/
	action getBeanIllustrator(float beanVolt) returns integer {
		return (getHalf(beanVolt) - ColorScheme.SIZE).abs(); 
	}
	
	action getHalf(float value) returns integer{
		return value.floor() / Divider.BY_HALF;
	}
}
  00000054 C:\Users\y508970\workspace105\CoffeeFactoryDataSimulator\monitors\RoastSimulator.mon
DISC 0000003c 1907214234774601728:1921279423585779712 from 127.0.0.1:54540
TIME 0000000e 1568110397.1,1
TIME 0000000e 1568110397.6,1
TIME 0000000e 1568110398.6,1
TIME 0000000e 1568110399.6,1
TIME 0000000e 1568110400.6,1
TIME 0000000e 1568110401.6,1
TIME 0000000e 1568110402.6,1
TIME 0000000e 1568110403.6,1
TIME 0000000e 1568110404.6,1
TIME 0000000e 1568110405.6,1
TIME 0000000e 1568110406.6,1
TIME 0000000e 1568110407.6,1
TIME 0000000e 1568110408.6,1
TIME 0000000e 1568110409.6,1
TIME 0000000e 1568110410.6,1
TIME 0000000e 1568110411.6,1
TIME 0000000e 1568110412.6,1
TIME 0000000e 1568110413.6,1
TIME 0000000e 1568110414.6,1
TIME 0000000e 1568110415.6,1
TIME 0000000e 1568110416.6,1
TIME 0000000e 1568110417.6,1
TIME 0000000e 1568110418.6,1
TIME 0000000e 1568110419.6,1
TIME 0000000e 1568110420.6,1
TIME 0000000e 1568110421.6,1
TIME 0000000e 1568110422.6,1
TIME 0000000e 1568110423.6,1
TIME 0000000e 1568110424.6,1
TIME 0000000e 1568110425.6,1
TIME 0000000e 1568110426.6,1
TIME 0000000e 1568110427.6,1
TIME 0000000e 1568110428.6,1
TIME 0000000e 1568110429.6,1
TIME 0000000e 1568110430.6,1
TIME 0000000e 1568110431.6,1
TIME 0000000e 1568110432.6,1
TIME 0000000e 1568110433.6,1
TIME 0000000e 1568110434.6,1
TIME 0000000e 1568110435.6,1
TIME 0000000e 1568110436.6,1
TIME 0000000e 1568110437.6,1
TIME 0000000e 1568110438.6,1
TIME 0000000e 1568110439.6,1
TIME 0000000e 1568110440.6,1
TIME 0000000e 1568110441.6,1
TIME 0000000e 1568110442.6,1
TIME 0000000e 1568110443.6,1
TIME 0000000e 1568110444.6,1
TIME 0000000e 1568110445.6,1
TIME 0000000e 1568110446.6,1
TIME 0000000e 1568110447.6,1
TIME 0000000e 1568110448.6,1
TIME 0000000e 1568110449.6,1
TIME 0000000e 1568110450.6,1
TIME 0000000e 1568110451.6,1
TIME 0000000e 1568110452.6,1
TIME 0000000e 1568110453.6,1
TIME 0000000e 1568110454.6,1
TIME 0000000e 1568110455.6,1
TIME 0000000e 1568110456.6,1
TIME 0000000e 1568110457.6,1
TIME 0000000e 1568110458.6,1
TIME 0000000e 1568110459.6,1
TIME 0000000e 1568110460.6,1
TIME 0000000e 1568110461.6,1
TIME 0000000e 1568110462.6,1
TIME 0000000e 1568110463.6,1
TIME 0000000e 1568110464.6,1
TIME 0000000e 1568110465.6,1
TIME 0000000e 1568110466.6,1
TIME 0000000e 1568110467.6,1
TIME 0000000e 1568110468.6,1
TIME 0000000e 1568110469.6,1
TIME 0000000e 1568110470.6,1
TIME 0000000e 1568110471.6,1
TIME 0000000e 1568110472.6,1
TIME 0000000e 1568110473.6,1
TIME 0000000e 1568110474.6,1
TIME 0000000e 1568110475.6,1
TIME 0000000e 1568110476.6,1
TIME 0000000e 1568110477.6,1
TIME 0000000e 1568110478.6,1
TIME 0000000e 1568110479.6,1
TIME 0000000e 1568110480.6,1
TIME 0000000e 1568110481.6,1
TIME 0000000e 1568110482.6,1
TIME 0000000e 1568110483.6,1
TIME 0000000e 1568110484.6,1
TIME 0000000e 1568110485.6,1
TIME 0000000e 1568110486.6,1
TIME 0000000e 1568110487.6,1
TIME 0000000e 1568110488.6,1
TIME 0000000e 1568110489.6,1
TIME 0000000e 1568110490.6,1
TIME 0000000e 1568110491.6,1
TIME 0000000e 1568110492.6,1
TIME 0000000e 1568110493.6,1
TIME 0000000e 1568110494.6,1
TIME 0000000e 1568110495.6,1
TIME 0000000e 1568110496.6,1
TIME 0000000e 1568110497.6,1
TIME 0000000e 1568110498.6,1
TIME 0000000e 1568110499.6,1
TIME 0000000e 1568110500.6,1
TIME 0000000e 1568110501.6,1
TIME 0000000e 1568110502.6,1
TIME 0000000e 1568110503.6,1
TIME 0000000e 1568110504.6,1
TIME 0000000e 1568110505.6,1
TIME 0000000e 1568110506.6,1
TIME 0000000e 1568110507.6,1
TIME 0000000e 1568110508.6,1
TIME 0000000e 1568110509.6,1
TIME 0000000e 1568110510.6,1
TIME 0000000e 1568110511.6,1
TIME 0000000e 1568110512.6,1
TIME 0000000e 1568110513.6,1
TIME 0000000e 1568110514.6,1
TIME 0000000e 1568110515.6,1
TIME 0000000e 1568110516.6,1
TIME 0000000e 1568110517.6,1
TIME 0000000e 1568110518.6,1
TIME 0000000e 1568110519.6,1
TIME 0000000e 1568110520.6,1
TIME 0000000e 1568110521.6,1
TIME 0000000e 1568110522.6,1
TIME 0000000e 1568110523.6,1
TIME 0000000e 1568110524.6,1
TIME 0000000e 1568110525.6,1
TIME 0000000e 1568110526.6,1
TIME 0000000e 1568110527.6,1
TIME 0000000e 1568110528.6,1
TIME 0000000e 1568110529.6,1
TIME 0000000e 1568110530.6,1
TIME 0000000e 1568110531.6,1
TIME 0000000e 1568110532.6,1
TIME 0000000e 1568110533.6,1
TIME 0000000e 1568110534.6,1
TIME 0000000e 1568110535.6,1
TIME 0000000e 1568110536.6,1
TIME 0000000e 1568110537.6,1
TIME 0000000e 1568110538.6,1
TIME 0000000e 1568110539.6,1
TIME 0000000e 1568110540.6,1
TIME 0000000e 1568110541.6,1
TIME 0000000e 1568110542.6,1
TIME 0000000e 1568110543.6,1
TIME 0000000e 1568110544.6,1
TIME 0000000e 1568110545.6,1
TIME 0000000e 1568110546.6,1
TIME 0000000e 1568110547.6,1
TIME 0000000e 1568110548.6,1
TIME 0000000e 1568110549.6,1
TIME 0000000e 1568110550.6,1
TIME 0000000e 1568110551.6,1
TIME 0000000e 1568110552.6,1
TIME 0000000e 1568110553.6,1
TIME 0000000e 1568110554.6,1
TIME 0000000e 1568110555.6,1
TIME 0000000e 1568110556.6,1
TIME 0000000e 1568110557.6,1
TIME 0000000e 1568110558.6,1
TIME 0000000e 1568110559.6,1
TIME 0000000e 1568110560.6,1
TIME 0000000e 1568110561.6,1
TIME 0000000e 1568110562.6,1
TIME 0000000e 1568110563.6,1
TIME 0000000e 1568110564.6,1
TIME 0000000e 1568110565.6,1
TIME 0000000e 1568110566.6,1
TIME 0000000e 1568110567.6,1
TIME 0000000e 1568110568.6,1
TIME 0000000e 1568110569.6,1
TIME 0000000e 1568110570.6,1
TIME 0000000e 1568110571.6,1
TIME 0000000e 1568110572.6,1
TIME 0000000e 1568110573.6,1
TIME 0000000e 1568110574.6,1
TIME 0000000e 1568110575.6,1
TIME 0000000e 1568110576.6,1
TIME 0000000e 1568110577.6,1
TIME 0000000e 1568110578.6,1
TIME 0000000e 1568110579.6,1
TIME 0000000e 1568110580.6,1
TIME 0000000e 1568110581.6,1
TIME 0000000e 1568110582.6,1
TIME 0000000e 1568110583.6,1
TIME 0000000e 1568110584.6,1
TIME 0000000e 1568110585.6,1
TIME 0000000e 1568110586.6,1
TIME 0000000e 1568110587.6,1
TIME 0000000e 1568110588.6,1
TIME 0000000e 1568110589.6,1
TIME 0000000e 1568110590.6,1
TIME 0000000e 1568110591.6,1
TIME 0000000e 1568110592.6,1
TIME 0000000e 1568110593.6,1
TIME 0000000e 1568110594.6,1
TIME 0000000e 1568110595.6,1
TIME 0000000e 1568110596.6,1
TIME 0000000e 1568110597.6,1
TIME 0000000e 1568110598.6,1
TIME 0000000e 1568110599.6,1
TIME 0000000e 1568110600.6,1
TIME 0000000e 1568110601.6,1
TIME 0000000e 1568110602.6,1
TIME 0000000e 1568110603.6,1
TIME 0000000e 1568110604.6,1
TIME 0000000e 1568110605.6,1
TIME 0000000e 1568110606.6,1
TIME 0000000e 1568110607.6,1
TIME 0000000e 1568110608.6,1
TIME 0000000e 1568110609.6,1
TIME 0000000e 1568110610.6,1
TIME 0000000e 1568110611.6,1
TIME 0000000e 1568110612.6,1
TIME 0000000e 1568110613.6,1
TIME 0000000e 1568110614.6,1
TIME 0000000e 1568110615.6,1
TIME 0000000e 1568110616.6,1
TIME 0000000e 1568110617.6,1
TIME 0000000e 1568110618.6,1
TIME 0000000e 1568110619.6,1
TIME 0000000e 1568110620.6,1
TIME 0000000e 1568110621.6,1
TIME 0000000e 1568110622.6,1
TIME 0000000e 1568110623.6,1
TIME 0000000e 1568110624.6,1
TIME 0000000e 1568110625.6,1
TIME 0000000e 1568110626.6,1
TIME 0000000e 1568110627.6,1
TIME 0000000e 1568110628.6,1
TIME 0000000e 1568110629.6,1
TIME 0000000e 1568110630.6,1
TIME 0000000e 1568110631.6,1
TIME 0000000e 1568110632.6,1
TIME 0000000e 1568110633.6,1
TIME 0000000e 1568110634.6,1
TIME 0000000e 1568110635.6,1
TIME 0000000e 1568110636.6,1
TIME 0000000e 1568110637.6,1
TIME 0000000e 1568110638.6,1
TIME 0000000e 1568110639.6,1
TIME 0000000e 1568110640.6,1
TIME 0000000e 1568110641.6,1
TIME 0000000e 1568110642.6,1
TIME 0000000e 1568110643.6,1
TIME 0000000e 1568110644.6,1
TIME 0000000e 1568110645.6,1
TIME 0000000e 1568110646.6,1
TIME 0000000e 1568110647.6,1
TIME 0000000e 1568110648.6,1
TIME 0000000e 1568110649.6,1
TIME 0000000e 1568110650.6,1
TIME 0000000e 1568110651.6,1
TIME 0000000e 1568110652.6,1
TIME 0000000e 1568110653.6,1
TIME 0000000e 1568110654.6,1
TIME 0000000e 1568110655.6,1
TIME 0000000e 1568110656.6,1
TIME 0000000e 1568110657.6,1
TIME 0000000e 1568110658.6,1
TIME 0000000e 1568110659.6,1
TIME 0000000e 1568110660.6,1
TIME 0000000e 1568110661.6,1
TIME 0000000e 1568110662.6,1
TIME 0000000e 1568110663.6,1
TIME 0000000e 1568110664.6,1
TIME 0000000e 1568110665.6,1
TIME 0000000e 1568110666.6,1
TIME 0000000e 1568110667.6,1
TIME 0000000e 1568110668.6,1
TIME 0000000e 1568110669.6,1
TIME 0000000e 1568110670.6,1
TIME 0000000e 1568110671.6,1
TIME 0000000e 1568110672.6,1
TIME 0000000e 1568110673.6,1
TIME 0000000e 1568110674.6,1
TIME 0000000e 1568110675.6,1
TIME 0000000e 1568110676.6,1
TIME 0000000e 1568110677.6,1
TIME 0000000e 1568110678.6,1
TIME 0000000e 1568110679.6,1
TIME 0000000e 1568110680.6,1
TIME 0000000e 1568110681.6,1
TIME 0000000e 1568110682.6,1
TIME 0000000e 1568110683.6,1
TIME 0000000e 1568110684.6,1
TIME 0000000e 1568110685.6,1
TIME 0000000e 1568110686.6,1
TIME 0000000e 1568110687.6,1
TIME 0000000e 1568110688.6,1
TIME 0000000e 1568110689.6,1
TIME 0000000e 1568110690.6,1
TIME 0000000e 1568110691.6,1
TIME 0000000e 1568110692.6,1
TIME 0000000e 1568110693.6,1
TIME 0000000e 1568110694.6,1
TIME 0000000e 1568110695.6,1
TIME 0000000e 1568110696.6,1
TIME 0000000e 1568110697.6,1
TIME 0000000e 1568110698.6,1
TIME 0000000e 1568110699.6,1
TIME 0000000e 1568110700.6,1
TIME 0000000e 1568110701.6,1
TIME 0000000e 1568110702.6,1
TIME 0000000e 1568110703.6,1
TIME 0000000e 1568110704.6,1
TIME 0000000e 1568110705.6,1
TIME 0000000e 1568110706.6,1
TIME 0000000e 1568110707.6,1
TIME 0000000e 1568110708.6,1
TIME 0000000e 1568110709.6,1
TIME 0000000e 1568110710.6,1
TIME 0000000e 1568110711.6,1
TIME 0000000e 1568110712.6,1
TIME 0000000e 1568110713.6,1
TIME 0000000e 1568110714.6,1
TIME 0000000e 1568110715.6,1
TIME 0000000e 1568110716.6,1
TIME 0000000e 1568110717.6,1
TIME 0000000e 1568110718.6,1
TIME 0000000e 1568110719.6,1
TIME 0000000e 1568110720.6,1
TIME 0000000e 1568110721.6,1
TIME 0000000e 1568110722.6,1
TIME 0000000e 1568110723.6,1
TIME 0000000e 1568110724.6,1
TIME 0000000e 1568110725.6,1
TIME 0000000e 1568110726.6,1
TIME 0000000e 1568110727.6,1
TIME 0000000e 1568110728.6,1
TIME 0000000e 1568110729.6,1
TIME 0000000e 1568110730.6,1
TIME 0000000e 1568110731.6,1
TIME 0000000e 1568110732.6,1
TIME 0000000e 1568110733.6,1
TIME 0000000e 1568110734.6,1
TIME 0000000e 1568110735.6,1
TIME 0000000e 1568110736.6,1
TIME 0000000e 1568110737.6,1
TIME 0000000e 1568110738.6,1
TIME 0000000e 1568110739.6,1
TIME 0000000e 1568110740.6,1
TIME 0000000e 1568110741.6,1
TIME 0000000e 1568110742.6,1
TIME 0000000e 1568110743.6,1
TIME 0000000e 1568110744.6,1
TIME 0000000e 1568110745.6,1
TIME 0000000e 1568110746.6,1
TIME 0000000e 1568110747.6,1
TIME 0000000e 1568110748.6,1
TIME 0000000e 1568110749.6,1
TIME 0000000e 1568110750.6,1
TIME 0000000e 1568110751.6,1
TIME 0000000e 1568110752.6,1
TIME 0000000e 1568110753.6,1
TIME 0000000e 1568110754.6,1
TIME 0000000e 1568110755.6,1
TIME 0000000e 1568110756.6,1
TIME 0000000e 1568110757.6,1
TIME 0000000e 1568110758.6,1
TIME 0000000e 1568110759.6,1
TIME 0000000e 1568110760.6,1
TIME 0000000e 1568110761.6,1
TIME 0000000e 1568110762.6,1
TIME 0000000e 1568110763.6,1
TIME 0000000e 1568110764.6,1
TIME 0000000e 1568110765.6,1
TIME 0000000e 1568110766.6,1
TIME 0000000e 1568110767.6,1
TIME 0000000e 1568110768.6,1
TIME 0000000e 1568110769.6,1
TIME 0000000e 1568110770.6,1
TIME 0000000e 1568110771.6,1
TIME 0000000e 1568110772.6,1
TIME 0000000e 1568110773.6,1
TIME 0000000e 1568110774.6,1
TIME 0000000e 1568110775.6,1
TIME 0000000e 1568110776.6,1
TIME 0000000e 1568110777.6,1
TIME 0000000e 1568110778.6,1
TIME 0000000e 1568110779.6,1
TIME 0000000e 1568110780.6,1
TIME 0000000e 1568110781.6,1
TIME 0000000e 1568110782.6,1
TIME 0000000e 1568110783.6,1
TIME 0000000e 1568110784.6,1
TIME 0000000e 1568110785.6,1
TIME 0000000e 1568110786.6,1
TIME 0000000e 1568110787.6,1
TIME 0000000e 1568110788.6,1
TIME 0000000e 1568110789.6,1
TIME 0000000e 1568110790.6,1
TIME 0000000e 1568110791.6,1
TIME 0000000e 1568110792.6,1
TIME 0000000e 1568110793.6,1
TIME 0000000e 1568110794.6,1
TIME 0000000e 1568110795.6,1
TIME 0000000e 1568110796.6,1
TIME 0000000e 1568110797.6,1
TIME 0000000e 1568110798.6,1
TIME 0000000e 1568110799.6,1
TIME 0000000e 1568110800.6,1
TIME 0000000e 1568110801.6,1
TIME 0000000e 1568110802.6,1
TIME 0000000e 1568110803.6,1
TIME 0000000e 1568110804.6,1
TIME 0000000e 1568110805.6,1
TIME 0000000e 1568110806.6,1
TIME 0000000e 1568110807.6,1
TIME 0000000e 1568110808.6,1
TIME 0000000e 1568110809.6,1
TIME 0000000e 1568110810.6,1
TIME 0000000e 1568110811.6,1
TIME 0000000e 1568110812.6,1
TIME 0000000e 1568110813.6,1
TIME 0000000e 1568110814.6,1
TIME 0000000e 1568110815.6,1
TIME 0000000e 1568110816.6,1
TIME 0000000e 1568110817.6,1
TIME 0000000e 1568110818.6,1
TIME 0000000e 1568110819.6,1
TIME 0000000e 1568110820.6,1
TIME 0000000e 1568110821.6,1
TIME 0000000e 1568110822.6,1
TIME 0000000e 1568110823.6,1
TIME 0000000e 1568110824.6,1
TIME 0000000e 1568110825.6,1
TIME 0000000e 1568110826.6,1
TIME 0000000e 1568110827.6,1
TIME 0000000e 1568110828.6,1
TIME 0000000e 1568110829.6,1
TIME 0000000e 1568110830.6,1
TIME 0000000e 1568110831.6,1
TIME 0000000e 1568110832.6,1
TIME 0000000e 1568110833.6,1
TIME 0000000e 1568110834.6,1
TIME 0000000e 1568110835.6,1
TIME 0000000e 1568110836.6,1
TIME 0000000e 1568110837.6,1
TIME 0000000e 1568110838.6,1
TIME 0000000e 1568110839.6,1
TIME 0000000e 1568110840.6,1
TIME 0000000e 1568110841.6,1
TIME 0000000e 1568110842.6,1
TIME 0000000e 1568110843.6,1
TIME 0000000e 1568110844.6,1
TIME 0000000e 1568110845.6,1
TIME 0000000e 1568110846.6,1
TIME 0000000e 1568110847.6,1
TIME 0000000e 1568110848.6,1
TIME 0000000e 1568110849.6,1
TIME 0000000e 1568110850.6,1
TIME 0000000e 1568110851.6,1
TIME 0000000e 1568110852.6,1
TIME 0000000e 1568110853.6,1
TIME 0000000e 1568110854.6,1
TIME 0000000e 1568110855.6,1
TIME 0000000e 1568110856.6,1
TIME 0000000e 1568110857.6,1
TIME 0000000e 1568110858.6,1
TIME 0000000e 1568110859.6,1
TIME 0000000e 1568110860.6,1
TIME 0000000e 1568110861.6,1
TIME 0000000e 1568110862.6,1
TIME 0000000e 1568110863.6,1
TIME 0000000e 1568110864.6,1
TIME 0000000e 1568110865.6,1
TIME 0000000e 1568110866.6,1
TIME 0000000e 1568110867.6,1
TIME 0000000e 1568110868.6,1
TIME 0000000e 1568110869.6,1
TIME 0000000e 1568110870.6,1
TIME 0000000e 1568110871.6,1
TIME 0000000e 1568110872.6,1
TIME 0000000e 1568110873.6,1
TIME 0000000e 1568110874.6,1
TIME 0000000e 1568110875.6,1
TIME 0000000e 1568110876.6,1
TIME 0000000e 1568110877.6,1
TIME 0000000e 1568110878.6,1
TIME 0000000e 1568110879.6,1
TIME 0000000e 1568110880.6,1
TIME 0000000e 1568110881.6,1
TIME 0000000e 1568110882.6,1
TIME 0000000e 1568110883.6,1
TIME 0000000e 1568110884.6,1
TIME 0000000e 1568110885.6,1
TIME 0000000e 1568110886.6,1
TIME 0000000e 1568110887.6,1
TIME 0000000e 1568110888.6,1
TIME 0000000e 1568110889.6,1
TIME 0000000e 1568110890.6,1
TIME 0000000e 1568110891.6,1
TIME 0000000e 1568110892.6,1
TIME 0000000e 1568110893.6,1
TIME 0000000e 1568110894.6,1
TIME 0000000e 1568110895.6,1
TIME 0000000e 1568110896.6,1
TIME 0000000e 1568110897.6,1
TIME 0000000e 1568110898.6,1
TIME 0000000e 1568110899.6,1
TIME 0000000e 1568110900.6,1
TIME 0000000e 1568110901.6,1
TIME 0000000e 1568110902.6,1
TIME 0000000e 1568110903.6,1
TIME 0000000e 1568110904.6,1
TIME 0000000e 1568110905.6,1
TIME 0000000e 1568110906.6,1
TIME 0000000e 1568110907.6,1
TIME 0000000e 1568110908.6,1
TIME 0000000e 1568110909.6,1
TIME 0000000e 1568110910.6,1
TIME 0000000e 1568110911.6,1
TIME 0000000e 1568110912.6,1
TIME 0000000e 1568110913.6,1
TIME 0000000e 1568110914.6,1
TIME 0000000e 1568110915.6,1
TIME 0000000e 1568110916.6,1
TIME 0000000e 1568110917.6,1
TIME 0000000e 1568110918.6,1
TIME 0000000e 1568110919.6,1
TIME 0000000e 1568110920.6,1
TIME 0000000e 1568110921.6,1
TIME 0000000e 1568110922.6,1
TIME 0000000e 1568110923.6,1
TIME 0000000e 1568110924.6,1
TIME 0000000e 1568110925.6,1
TIME 0000000e 1568110926.6,1
TIME 0000000e 1568110927.6,1
TIME 0000000e 1568110928.6,1
TIME 0000000e 1568110929.6,1
TIME 0000000e 1568110930.6,1
TIME 0000000e 1568110931.6,1
TIME 0000000e 1568110932.6,1
TIME 0000000e 1568110933.6,1
TIME 0000000e 1568110934.6,1
TIME 0000000e 1568110935.6,1
TIME 0000000e 1568110936.6,1
TIME 0000000e 1568110937.6,1
TIME 0000000e 1568110938.6,1
TIME 0000000e 1568110939.6,1
TIME 0000000e 1568110940.6,1
TIME 0000000e 1568110941.6,1
TIME 0000000e 1568110942.6,1
TIME 0000000e 1568110943.6,1
TIME 0000000e 1568110944.6,1
TIME 0000000e 1568110945.6,1
TIME 0000000e 1568110946.6,1
TIME 0000000e 1568110947.6,1
TIME 0000000e 1568110948.6,1
TIME 0000000e 1568110949.6,1
TIME 0000000e 1568110950.6,1
TIME 0000000e 1568110951.6,1
TIME 0000000e 1568110952.6,1
TIME 0000000e 1568110953.6,1
TIME 0000000e 1568110954.6,1
TIME 0000000e 1568110955.6,1
TIME 0000000e 1568110956.6,1
TIME 0000000e 1568110957.6,1
TIME 0000000e 1568110958.6,1
TIME 0000000e 1568110959.6,1
TIME 0000000e 1568110960.6,1
TIME 0000000e 1568110961.6,1
TIME 0000000e 1568110962.6,1
TIME 0000000e 1568110963.6,1
TIME 0000000e 1568110964.6,1
TIME 0000000e 1568110965.6,1
TIME 0000000e 1568110966.6,1
TIME 0000000e 1568110967.6,1
TIME 0000000e 1568110968.6,1
TIME 0000000e 1568110969.6,1
TIME 0000000e 1568110970.6,1
TIME 0000000e 1568110971.6,1
TIME 0000000e 1568110972.6,1
TIME 0000000e 1568110973.6,1
TIME 0000000e 1568110974.6,1
TIME 0000000e 1568110975.6,1
TIME 0000000e 1568110976.6,1
TIME 0000000e 1568110977.6,1
TIME 0000000e 1568110978.6,1
TIME 0000000e 1568110979.6,1
TIME 0000000e 1568110980.6,1
TIME 0000000e 1568110981.6,1
TIME 0000000e 1568110982.6,1
TIME 0000000e 1568110983.6,1
TIME 0000000e 1568110984.6,1
TIME 0000000e 1568110985.6,1
TIME 0000000e 1568110986.6,1
TIME 0000000e 1568110987.6,1
TIME 0000000e 1568110988.6,1
TIME 0000000e 1568110989.6,1
TIME 0000000e 1568110990.6,1
TIME 0000000e 1568110991.6,1
TIME 0000000e 1568110992.6,1
TIME 0000000e 1568110993.6,1
TIME 0000000e 1568110994.6,1
TIME 0000000e 1568110995.6,1
TIME 0000000e 1568110996.6,1
TIME 0000000e 1568110997.6,1
TIME 0000000e 1568110998.6,1
TIME 0000000e 1568110999.6,1
TIME 0000000e 1568111000.6,1
TIME 0000000e 1568111001.6,1
TIME 0000000e 1568111002.6,1
TIME 0000000e 1568111003.6,1
TIME 0000000e 1568111004.6,1
TIME 0000000e 1568111005.6,1
TIME 0000000e 1568111006.6,1
TIME 0000000e 1568111007.6,1
TIME 0000000e 1568111008.6,1
TIME 0000000e 1568111009.6,1
TIME 0000000e 1568111010.6,1
TIME 0000000e 1568111011.6,1
TIME 0000000e 1568111012.6,1
TIME 0000000e 1568111013.6,1
TIME 0000000e 1568111014.6,1
TIME 0000000e 1568111015.6,1
TIME 0000000e 1568111016.6,1
TIME 0000000e 1568111017.6,1
TIME 0000000e 1568111018.6,1
TIME 0000000e 1568111019.6,1
TIME 0000000e 1568111020.6,1
TIME 0000000e 1568111021.6,1
TIME 0000000e 1568111022.6,1
TIME 0000000e 1568111023.6,1
TIME 0000000e 1568111024.6,1
TIME 0000000e 1568111025.6,1
TIME 0000000e 1568111026.6,1
TIME 0000000e 1568111027.6,1
TIME 0000000e 1568111028.6,1
TIME 0000000e 1568111029.6,1
TIME 0000000e 1568111030.6,1
TIME 0000000e 1568111031.6,1
TIME 0000000e 1568111032.6,1
TIME 0000000e 1568111033.6,1
TIME 0000000e 1568111034.6,1
TIME 0000000e 1568111035.6,1
TIME 0000000e 1568111036.6,1
TIME 0000000e 1568111037.6,1
TIME 0000000e 1568111038.6,1
TIME 0000000e 1568111039.6,1
TIME 0000000e 1568111040.6,1
TIME 0000000e 1568111041.6,1
TIME 0000000e 1568111042.6,1
TIME 0000000e 1568111043.6,1
TIME 0000000e 1568111044.6,1
TIME 0000000e 1568111045.6,1
TIME 0000000e 1568111046.6,1
TIME 0000000e 1568111047.6,1
TIME 0000000e 1568111048.6,1
TIME 0000000e 1568111049.6,1
TIME 0000000e 1568111050.6,1
TIME 0000000e 1568111051.6,1
TIME 0000000e 1568111052.6,1
TIME 0000000e 1568111053.6,1
TIME 0000000e 1568111054.6,1
TIME 0000000e 1568111055.6,1
TIME 0000000e 1568111056.6,1
TIME 0000000e 1568111057.6,1
TIME 0000000e 1568111058.6,1
TIME 0000000e 1568111059.6,1
TIME 0000000e 1568111060.6,1
TIME 0000000e 1568111061.6,1
TIME 0000000e 1568111062.6,1
TIME 0000000e 1568111063.6,1
TIME 0000000e 1568111064.6,1
TIME 0000000e 1568111065.6,1
TIME 0000000e 1568111066.6,1
TIME 0000000e 1568111067.6,1
TIME 0000000e 1568111068.6,1
TIME 0000000e 1568111069.6,1
TIME 0000000e 1568111070.6,1
TIME 0000000e 1568111071.6,1
TIME 0000000e 1568111072.6,1
TIME 0000000e 1568111073.6,1
TIME 0000000e 1568111074.6,1
TIME 0000000e 1568111075.6,1
TIME 0000000e 1568111076.6,1
TIME 0000000e 1568111077.6,1
TIME 0000000e 1568111078.6,1
TIME 0000000e 1568111079.6,1
TIME 0000000e 1568111080.6,1
TIME 0000000e 1568111081.6,1
TIME 0000000e 1568111082.6,1
TIME 0000000e 1568111083.6,1
TIME 0000000e 1568111084.6,1
TIME 0000000e 1568111085.6,1
TIME 0000000e 1568111086.6,1
TIME 0000000c 1568111087,1
TIME 0000000e 1568111087.6,1
TIME 0000000e 1568111088.6,1
TIME 0000000e 1568111089.6,1
TIME 0000000e 1568111090.6,1
TIME 0000000e 1568111091.6,1
TIME 0000000e 1568111092.6,1
TIME 0000000e 1568111093.6,1
TIME 0000000e 1568111094.6,1
TIME 0000000e 1568111095.6,1
TIME 0000000e 1568111096.6,1
TIME 0000000e 1568111097.6,1
TIME 0000000e 1568111098.6,1
TIME 0000000e 1568111099.6,1
TIME 0000000e 1568111100.6,1
TIME 0000000e 1568111101.6,1
TIME 0000000e 1568111102.6,1
TIME 0000000e 1568111103.6,1
TIME 0000000e 1568111104.6,1
TIME 0000000e 1568111105.6,1
TIME 0000000e 1568111106.6,1
TIME 0000000e 1568111107.6,1
TIME 0000000e 1568111108.6,1
TIME 0000000e 1568111109.6,1
TIME 0000000e 1568111110.6,1
TIME 0000000e 1568111111.6,1
TIME 0000000e 1568111112.6,1
TIME 0000000e 1568111113.6,1
TIME 0000000e 1568111114.6,1
TIME 0000000e 1568111115.6,1
TIME 0000000e 1568111116.6,1
TIME 0000000e 1568111117.6,1
TIME 0000000e 1568111118.6,1
TIME 0000000e 1568111119.6,1
TIME 0000000e 1568111120.6,1
TIME 0000000e 1568111121.6,1
TIME 0000000e 1568111122.6,1
TIME 0000000e 1568111123.6,1
TIME 0000000e 1568111124.6,1
TIME 0000000e 1568111125.6,1
TIME 0000000e 1568111126.6,1
TIME 0000000e 1568111127.6,1
TIME 0000000e 1568111128.6,1
TIME 0000000e 1568111129.6,1
TIME 0000000e 1568111130.6,1
TIME 0000000e 1568111131.6,1
TIME 0000000e 1568111132.6,1
TIME 0000000e 1568111133.6,1
TIME 0000000e 1568111134.6,1
TIME 0000000e 1568111135.6,1
TIME 0000000e 1568111136.6,1
TIME 0000000e 1568111137.6,1
TIME 0000000e 1568111138.6,1
TIME 0000000e 1568111139.6,1
TIME 0000000e 1568111140.6,1
TIME 0000000e 1568111141.6,1
TIME 0000000e 1568111142.6,1
TIME 0000000e 1568111143.6,1
TIME 0000000e 1568111144.6,1
TIME 0000000e 1568111145.6,1
TIME 0000000e 1568111146.6,1
TIME 0000000e 1568111147.6,1
TIME 0000000e 1568111148.6,1
TIME 0000000e 1568111149.6,1
TIME 0000000e 1568111150.6,1
TIME 0000000e 1568111151.6,1
TIME 0000000e 1568111152.6,1
TIME 0000000e 1568111153.6,1
TIME 0000000e 1568111154.6,1
TIME 0000000e 1568111155.6,1
TIME 0000000e 1568111156.6,1
TIME 0000000e 1568111157.6,1
TIME 0000000e 1568111158.6,1
TIME 0000000e 1568111159.6,1
TIME 0000000e 1568111160.6,1
TIME 0000000e 1568111161.6,1
TIME 0000000e 1568111162.6,1
TIME 0000000e 1568111163.6,1
TIME 0000000e 1568111164.6,1
TIME 0000000e 1568111165.6,1
TIME 0000000e 1568111166.6,1
TIME 0000000e 1568111167.6,1
TIME 0000000e 1568111168.6,1
TIME 0000000e 1568111169.6,1
TIME 0000000e 1568111170.6,1
TIME 0000000e 1568111171.6,1
TIME 0000000e 1568111172.6,1
TIME 0000000e 1568111173.6,1
TIME 0000000e 1568111174.6,1
TIME 0000000e 1568111175.6,1
TIME 0000000e 1568111176.6,1
TIME 0000000e 1568111177.6,1
TIME 0000000e 1568111178.6,1
TIME 0000000e 1568111179.6,1
TIME 0000000e 1568111180.6,1
TIME 0000000e 1568111181.6,1
TIME 0000000e 1568111182.6,1
TIME 0000000e 1568111183.6,1
TIME 0000000e 1568111184.6,1
TIME 0000000e 1568111185.6,1
TIME 0000000e 1568111186.6,1
TIME 0000000e 1568111187.6,1
TIME 0000000e 1568111188.6,1
TIME 0000000e 1568111189.6,1
TIME 0000000e 1568111190.6,1
TIME 0000000e 1568111191.6,1
TIME 0000000e 1568111192.6,1
TIME 0000000e 1568111193.6,1
TIME 0000000e 1568111194.6,1
TIME 0000000e 1568111195.6,1
TIME 0000000e 1568111196.6,1
TIME 0000000e 1568111197.6,1
TIME 0000000e 1568111198.6,1
TIME 0000000e 1568111199.6,1
TIME 0000000e 1568111200.6,1
TIME 0000000e 1568111201.6,1
TIME 0000000e 1568111202.6,1
TIME 0000000e 1568111203.6,1
TIME 0000000e 1568111204.6,1
TIME 0000000e 1568111205.6,1
TIME 0000000e 1568111206.6,1
TIME 0000000e 1568111207.6,1
TIME 0000000e 1568111208.6,1
TIME 0000000e 1568111209.6,1
TIME 0000000e 1568111210.6,1
TIME 0000000e 1568111211.6,1
TIME 0000000e 1568111212.6,1
TIME 0000000e 1568111213.6,1
TIME 0000000e 1568111214.6,1
TIME 0000000e 1568111215.6,1
TIME 0000000e 1568111216.6,1
TIME 0000000e 1568111217.6,1
TIME 0000000e 1568111218.6,1
TIME 0000000e 1568111219.6,1
TIME 0000000e 1568111220.6,1
TIME 0000000e 1568111221.6,1
TIME 0000000e 1568111222.6,1
TIME 0000000e 1568111223.6,1
TIME 0000000e 1568111224.6,1
TIME 0000000e 1568111225.6,1
TIME 0000000e 1568111226.6,1
TIME 0000000e 1568111227.6,1
TIME 0000000e 1568111228.6,1
TIME 0000000e 1568111229.6,1
TIME 0000000e 1568111230.6,1
TIME 0000000e 1568111231.6,1
TIME 0000000e 1568111232.6,1
TIME 0000000e 1568111233.6,1
TIME 0000000e 1568111234.6,1
TIME 0000000e 1568111235.6,1
TIME 0000000e 1568111236.6,1
TIME 0000000e 1568111237.6,1
TIME 0000000e 1568111238.6,1
TIME 0000000e 1568111239.6,1
TIME 0000000e 1568111240.6,1
TIME 0000000e 1568111241.6,1
TIME 0000000e 1568111242.6,1
TIME 0000000e 1568111243.6,1
TIME 0000000e 1568111244.6,1
TIME 0000000e 1568111245.6,1
TIME 0000000e 1568111246.6,1
TIME 0000000e 1568111247.6,1
TIME 0000000e 1568111248.6,1
TIME 0000000e 1568111249.6,1
TIME 0000000e 1568111250.6,1
TIME 0000000e 1568111251.6,1
TIME 0000000e 1568111252.6,1
TIME 0000000e 1568111253.6,1
TIME 0000000e 1568111254.6,1
TIME 0000000e 1568111255.6,1
TIME 0000000e 1568111256.6,1
TIME 0000000e 1568111257.6,1
TIME 0000000e 1568111258.6,1
TIME 0000000e 1568111259.6,1
TIME 0000000e 1568111260.6,1
TIME 0000000e 1568111261.6,1
TIME 0000000e 1568111262.6,1
TIME 0000000e 1568111263.6,1
TIME 0000000e 1568111264.6,1
TIME 0000000e 1568111265.6,1
TIME 0000000e 1568111266.6,1
TIME 0000000e 1568111267.6,1
TIME 0000000e 1568111268.6,1
TIME 0000000e 1568111269.6,1
TIME 0000000e 1568111270.6,1
TIME 0000000e 1568111271.6,1
TIME 0000000e 1568111272.6,1
TIME 0000000e 1568111273.6,1
TIME 0000000e 1568111274.6,1
TIME 0000000e 1568111275.6,1
TIME 0000000e 1568111276.6,1
TIME 0000000e 1568111277.6,1
TIME 0000000e 1568111278.6,1
TIME 0000000e 1568111279.6,1
TIME 0000000e 1568111280.6,1
TIME 0000000e 1568111281.6,1
TIME 0000000e 1568111282.6,1
TIME 0000000e 1568111283.6,1
TIME 0000000e 1568111284.6,1
TIME 0000000e 1568111285.6,1
TIME 0000000e 1568111286.6,1
TIME 0000000e 1568111287.6,1
TIME 0000000e 1568111288.6,1
TIME 0000000e 1568111289.6,1
TIME 0000000e 1568111290.6,1
TIME 0000000e 1568111291.6,1
TIME 0000000e 1568111292.6,1
TIME 0000000e 1568111293.6,1
TIME 0000000e 1568111294.6,1
TIME 0000000e 1568111295.6,1
TIME 0000000e 1568111296.6,1
TIME 0000000e 1568111297.6,1
TIME 0000000e 1568111298.6,1
TIME 0000000e 1568111299.6,1
TIME 0000000e 1568111300.6,1
TIME 0000000e 1568111301.6,1
TIME 0000000e 1568111302.6,1
TIME 0000000e 1568111303.6,1
TIME 0000000e 1568111304.6,1
TIME 0000000e 1568111305.6,1
TIME 0000000e 1568111306.6,1
TIME 0000000e 1568111307.6,1
TIME 0000000e 1568111308.6,1
TIME 0000000e 1568111309.6,1
TIME 0000000e 1568111310.6,1
TIME 0000000e 1568111311.6,1
TIME 0000000e 1568111312.6,1
TIME 0000000e 1568111313.6,1
TIME 0000000e 1568111314.6,1
TIME 0000000e 1568111315.6,1
TIME 0000000e 1568111316.6,1
TIME 0000000e 1568111317.6,1
TIME 0000000e 1568111318.6,1
TIME 0000000e 1568111319.6,1
TIME 0000000e 1568111320.6,1
TIME 0000000e 1568111321.6,1
TIME 0000000e 1568111322.6,1
TIME 0000000e 1568111323.6,1
TIME 0000000e 1568111324.6,1
TIME 0000000e 1568111325.6,1
TIME 0000000e 1568111326.6,1
TIME 0000000e 1568111327.6,1
TIME 0000000e 1568111328.6,1
TIME 0000000e 1568111329.6,1
TIME 0000000e 1568111330.6,1
TIME 0000000e 1568111331.6,1
TIME 0000000e 1568111332.6,1
TIME 0000000e 1568111333.6,1
TIME 0000000e 1568111334.6,1
TIME 0000000e 1568111335.6,1
TIME 0000000e 1568111336.6,1
TIME 0000000e 1568111337.6,1
TIME 0000000e 1568111338.6,1
TIME 0000000e 1568111339.6,1
TIME 0000000e 1568111340.6,1
TIME 0000000e 1568111341.6,1
TIME 0000000e 1568111342.6,1
TIME 0000000e 1568111343.6,1
TIME 0000000e 1568111344.6,1
TIME 0000000e 1568111345.6,1
TIME 0000000e 1568111346.6,1
TIME 0000000e 1568111347.6,1
TIME 0000000e 1568111348.6,1
TIME 0000000e 1568111349.6,1
TIME 0000000e 1568111350.6,1
TIME 0000000e 1568111351.6,1
TIME 0000000e 1568111352.6,1
TIME 0000000e 1568111353.6,1
TIME 0000000e 1568111354.6,1
TIME 0000000e 1568111355.6,1
TIME 0000000e 1568111356.6,1
TIME 0000000e 1568111357.6,1
TIME 0000000e 1568111358.6,1
TIME 0000000e 1568111359.6,1
TIME 0000000e 1568111360.6,1
TIME 0000000e 1568111361.6,1
TIME 0000000e 1568111362.6,1
TIME 0000000e 1568111363.6,1
TIME 0000000e 1568111364.6,1
TIME 0000000e 1568111365.6,1
TIME 0000000e 1568111366.6,1
TIME 0000000e 1568111367.6,1
TIME 0000000e 1568111368.6,1
TIME 0000000e 1568111369.6,1
TIME 0000000e 1568111370.6,1
TIME 0000000e 1568111371.6,1
TIME 0000000e 1568111372.6,1
TIME 0000000e 1568111373.6,1
TIME 0000000e 1568111374.6,1
TIME 0000000e 1568111375.6,1
TIME 0000000e 1568111376.6,1
TIME 0000000e 1568111377.6,1
TIME 0000000e 1568111378.6,1
TIME 0000000e 1568111379.6,1
TIME 0000000e 1568111380.6,1
TIME 0000000e 1568111381.6,1
TIME 0000000e 1568111382.6,1
TIME 0000000e 1568111383.6,1
TIME 0000000e 1568111384.6,1
TIME 0000000e 1568111385.6,1
TIME 0000000e 1568111386.6,1
TIME 0000000e 1568111387.6,1
TIME 0000000e 1568111388.6,1
TIME 0000000e 1568111389.6,1
TIME 0000000e 1568111390.6,1
TIME 0000000e 1568111391.6,1
TIME 0000000e 1568111392.6,1
TIME 0000000e 1568111393.6,1
TIME 0000000e 1568111394.6,1
TIME 0000000e 1568111395.6,1
TIME 0000000e 1568111396.6,1
TIME 0000000e 1568111397.6,1
TIME 0000000e 1568111398.6,1
TIME 0000000e 1568111399.6,1
TIME 0000000e 1568111400.6,1
TIME 0000000e 1568111401.6,1
TIME 0000000e 1568111402.6,1
TIME 0000000e 1568111403.6,1
TIME 0000000e 1568111404.6,1
TIME 0000000e 1568111405.6,1
TIME 0000000e 1568111406.6,1
TIME 0000000e 1568111407.6,1
TIME 0000000e 1568111408.6,1
TIME 0000000e 1568111409.6,1
TIME 0000000e 1568111410.6,1
TIME 0000000e 1568111411.6,1
TIME 0000000e 1568111412.6,1
TIME 0000000e 1568111413.6,1
TIME 0000000e 1568111414.6,1
TIME 0000000e 1568111415.6,1
TIME 0000000e 1568111416.6,1
TIME 0000000e 1568111417.6,1
TIME 0000000e 1568111418.6,1
TIME 0000000e 1568111419.6,1
TIME 0000000e 1568111420.6,1
TIME 0000000e 1568111421.6,1
TIME 0000000e 1568111422.6,1
TIME 0000000e 1568111423.6,1
TIME 0000000e 1568111424.6,1
TIME 0000000e 1568111425.6,1
TIME 0000000e 1568111426.6,1
TIME 0000000e 1568111427.6,1
TIME 0000000e 1568111428.6,1
TIME 0000000e 1568111429.6,1
TIME 0000000e 1568111430.6,1
TIME 0000000e 1568111431.6,1
TIME 0000000e 1568111432.6,1
TIME 0000000e 1568111433.6,1
TIME 0000000e 1568111434.6,1
TIME 0000000e 1568111435.6,1
TIME 0000000e 1568111436.6,1
TIME 0000000e 1568111437.6,1
TIME 0000000e 1568111438.6,1
TIME 0000000e 1568111439.6,1
TIME 0000000e 1568111440.6,1
TIME 0000000e 1568111441.6,1
TIME 0000000e 1568111442.6,1
TIME 0000000e 1568111443.6,1
TIME 0000000e 1568111444.6,1
TIME 0000000e 1568111445.6,1
TIME 0000000e 1568111446.6,1
TIME 0000000e 1568111447.6,1
TIME 0000000e 1568111448.6,1
TIME 0000000e 1568111449.6,1
TIME 0000000e 1568111450.6,1
TIME 0000000e 1568111451.6,1
TIME 0000000e 1568111452.6,1
TIME 0000000e 1568111453.6,1
TIME 0000000e 1568111454.6,1
TIME 0000000e 1568111455.6,1
TIME 0000000e 1568111456.6,1
TIME 0000000e 1568111457.6,1
TIME 0000000e 1568111458.6,1
TIME 0000000e 1568111459.6,1
TIME 0000000e 1568111460.6,1
TIME 0000000e 1568111461.6,1
TIME 0000000e 1568111462.6,1
TIME 0000000e 1568111463.6,1
TIME 0000000e 1568111464.6,1
TIME 0000000e 1568111465.6,1
TIME 0000000e 1568111466.6,1
TIME 0000000e 1568111467.6,1
TIME 0000000e 1568111468.6,1
TIME 0000000e 1568111469.6,1
TIME 0000000e 1568111470.6,1
TIME 0000000e 1568111471.6,1
TIME 0000000e 1568111472.6,1
TIME 0000000e 1568111473.6,1
TIME 0000000e 1568111474.6,1
TIME 0000000e 1568111475.6,1
TIME 0000000e 1568111476.6,1
TIME 0000000e 1568111477.6,1
TIME 0000000e 1568111478.6,1
TIME 0000000e 1568111479.6,1
TIME 0000000e 1568111480.6,1
TIME 0000000e 1568111481.6,1
TIME 0000000e 1568111482.6,1
TIME 0000000e 1568111483.6,1
TIME 0000000e 1568111484.6,1
TIME 0000000e 1568111485.6,1
TIME 0000000e 1568111486.6,1
TIME 0000000e 1568111487.6,1
TIME 0000000e 1568111488.6,1
TIME 0000000e 1568111489.6,1
TIME 0000000e 1568111490.6,1
TIME 0000000e 1568111491.6,1
TIME 0000000e 1568111492.6,1
TIME 0000000e 1568111493.6,1
TIME 0000000e 1568111494.6,1
TIME 0000000e 1568111495.6,1
TIME 0000000e 1568111496.6,1
TIME 0000000e 1568111497.6,1
TIME 0000000e 1568111498.6,1
TIME 0000000e 1568111499.6,1
TIME 0000000e 1568111500.6,1
TIME 0000000e 1568111501.6,1
TIME 0000000e 1568111502.6,1
TIME 0000000e 1568111503.6,1
TIME 0000000e 1568111504.6,1
TIME 0000000e 1568111505.6,1
TIME 0000000e 1568111506.6,1
TIME 0000000e 1568111507.6,1
TIME 0000000e 1568111508.6,1
TIME 0000000e 1568111509.6,1
TIME 0000000e 1568111510.6,1
TIME 0000000e 1568111511.6,1
TIME 0000000e 1568111512.6,1
TIME 0000000e 1568111513.6,1
TIME 0000000e 1568111514.6,1
TIME 0000000e 1568111515.6,1
TIME 0000000e 1568111516.6,1
TIME 0000000e 1568111517.6,1
TIME 0000000e 1568111518.6,1
TIME 0000000e 1568111519.6,1
TIME 0000000e 1568111520.6,1
TIME 0000000e 1568111521.6,1
TIME 0000000e 1568111522.6,1
TIME 0000000e 1568111523.6,1
TIME 0000000e 1568111524.6,1
TIME 0000000e 1568111525.6,1
TIME 0000000e 1568111526.6,1
TIME 0000000e 1568111527.6,1
TIME 0000000e 1568111528.6,1
TIME 0000000e 1568111529.6,1
TIME 0000000e 1568111530.6,1
TIME 0000000e 1568111531.6,1
TIME 0000000e 1568111532.6,1
TIME 0000000e 1568111533.6,1
TIME 0000000e 1568111534.6,1
TIME 0000000e 1568111535.6,1
TIME 0000000e 1568111536.6,1
TIME 0000000e 1568111537.6,1
TIME 0000000e 1568111538.6,1
TIME 0000000e 1568111539.6,1
TIME 0000000e 1568111540.6,1
TIME 0000000e 1568111541.6,1
TIME 0000000e 1568111542.6,1
TIME 0000000e 1568111543.6,1
TIME 0000000e 1568111544.6,1
TIME 0000000e 1568111545.6,1
TIME 0000000e 1568111546.6,1
TIME 0000000e 1568111547.6,1
TIME 0000000e 1568111548.6,1
TIME 0000000e 1568111549.6,1
TIME 0000000e 1568111550.6,1
TIME 0000000e 1568111551.6,1
TIME 0000000e 1568111552.6,1
TIME 0000000e 1568111553.6,1
TIME 0000000e 1568111554.6,1
TIME 0000000e 1568111555.6,1
TIME 0000000e 1568111556.6,1
TIME 0000000e 1568111557.6,1
TIME 0000000e 1568111558.6,1
TIME 0000000e 1568111559.6,1
TIME 0000000e 1568111560.6,1
TIME 0000000e 1568111561.6,1
TIME 0000000e 1568111562.6,1
TIME 0000000e 1568111563.6,1
TIME 0000000e 1568111564.6,1
TIME 0000000e 1568111565.6,1
TIME 0000000e 1568111566.6,1
TIME 0000000e 1568111567.6,1
TIME 0000000e 1568111568.6,1
TIME 0000000e 1568111569.6,1
TIME 0000000e 1568111570.6,1
TIME 0000000e 1568111571.6,1
TIME 0000000e 1568111572.6,1
TIME 0000000e 1568111573.6,1
TIME 0000000e 1568111574.6,1
TIME 0000000e 1568111575.6,1
TIME 0000000e 1568111576.6,1
TIME 0000000e 1568111577.6,1
TIME 0000000e 1568111578.6,1
TIME 0000000e 1568111579.6,1
TIME 0000000e 1568111580.6,1
TIME 0000000e 1568111581.6,1
TIME 0000000e 1568111582.6,1
TIME 0000000e 1568111583.6,1
TIME 0000000e 1568111584.6,1
TIME 0000000e 1568111585.6,1
TIME 0000000e 1568111586.6,1
TIME 0000000e 1568111587.6,1
TIME 0000000e 1568111588.6,1
TIME 0000000e 1568111589.6,1
TIME 0000000e 1568111590.6,1
TIME 0000000e 1568111591.6,1
TIME 0000000e 1568111592.6,1
TIME 0000000e 1568111593.6,1
TIME 0000000e 1568111594.6,1
TIME 0000000e 1568111595.6,1
TIME 0000000e 1568111596.6,1
TIME 0000000e 1568111597.6,1
TIME 0000000e 1568111598.6,1
TIME 0000000e 1568111599.6,1
TIME 0000000e 1568111600.6,1
TIME 0000000e 1568111601.6,1
TIME 0000000e 1568111602.6,1
TIME 0000000e 1568111603.6,1
TIME 0000000e 1568111604.6,1
TIME 0000000e 1568111605.6,1
TIME 0000000e 1568111606.6,1
TIME 0000000e 1568111607.6,1
TIME 0000000e 1568111608.6,1
TIME 0000000e 1568111609.6,1
TIME 0000000e 1568111610.6,1
TIME 0000000e 1568111611.6,1
TIME 0000000e 1568111612.6,1
TIME 0000000e 1568111613.6,1
TIME 0000000e 1568111614.6,1
TIME 0000000e 1568111615.6,1
TIME 0000000e 1568111616.6,1
TIME 0000000e 1568111617.6,1
TIME 0000000e 1568111618.6,1
TIME 0000000e 1568111619.6,1
TIME 0000000e 1568111620.6,1
TIME 0000000e 1568111621.6,1
TIME 0000000e 1568111622.6,1
TIME 0000000e 1568111623.6,1
TIME 0000000e 1568111624.6,1
TIME 0000000e 1568111625.6,1
TIME 0000000e 1568111626.6,1
TIME 0000000e 1568111627.6,1
TIME 0000000e 1568111628.6,1
TIME 0000000e 1568111629.6,1
TIME 0000000e 1568111630.6,1
TIME 0000000e 1568111631.6,1
TIME 0000000e 1568111632.6,1
TIME 0000000e 1568111633.6,1
TIME 0000000e 1568111634.6,1
TIME 0000000e 1568111635.6,1
TIME 0000000e 1568111636.6,1
TIME 0000000e 1568111637.6,1
TIME 0000000e 1568111638.6,1
TIME 0000000e 1568111639.6,1
TIME 0000000e 1568111640.6,1
TIME 0000000e 1568111641.6,1
TIME 0000000e 1568111642.6,1
TIME 0000000e 1568111643.6,1
TIME 0000000e 1568111644.6,1
TIME 0000000e 1568111645.6,1
TIME 0000000e 1568111646.6,1
TIME 0000000e 1568111647.6,1
TIME 0000000e 1568111648.6,1
TIME 0000000e 1568111649.6,1
TIME 0000000e 1568111650.6,1
TIME 0000000e 1568111651.6,1
TIME 0000000e 1568111652.6,1
TIME 0000000e 1568111653.6,1
TIME 0000000e 1568111654.6,1
TIME 0000000e 1568111655.6,1
TIME 0000000e 1568111656.6,1
TIME 0000000e 1568111657.6,1
TIME 0000000e 1568111658.6,1
TIME 0000000e 1568111659.6,1
TIME 0000000e 1568111660.6,1
TIME 0000000e 1568111661.6,1
TIME 0000000e 1568111662.6,1
TIME 0000000e 1568111663.6,1
TIME 0000000e 1568111664.6,1
TIME 0000000e 1568111665.6,1
TIME 0000000e 1568111666.6,1
TIME 0000000e 1568111667.6,1
TIME 0000000e 1568111668.6,1
TIME 0000000e 1568111669.6,1
TIME 0000000e 1568111670.6,1
TIME 0000000e 1568111671.6,1
TIME 0000000e 1568111672.6,1
TIME 0000000e 1568111673.6,1
TIME 0000000e 1568111674.6,1
TIME 0000000e 1568111675.6,1
TIME 0000000e 1568111676.6,1
TIME 0000000e 1568111677.6,1
TIME 0000000e 1568111678.6,1
TIME 0000000e 1568111679.6,1
TIME 0000000e 1568111680.6,1
TIME 0000000e 1568111681.6,1
TIME 0000000e 1568111682.6,1
TIME 0000000e 1568111683.6,1
TIME 0000000e 1568111684.6,1
TIME 0000000e 1568111685.6,1
TIME 0000000e 1568111686.6,1
TIME 0000000e 1568111687.6,1
TIME 0000000e 1568111688.6,1
TIME 0000000e 1568111689.6,1
TIME 0000000e 1568111690.6,1
TIME 0000000e 1568111691.6,1
TIME 0000000e 1568111692.6,1
TIME 0000000e 1568111693.6,1
TIME 0000000e 1568111694.6,1
TIME 0000000e 1568111695.6,1
TIME 0000000e 1568111696.6,1
TIME 0000000e 1568111697.6,1
TIME 0000000e 1568111698.6,1
TIME 0000000e 1568111699.6,1
TIME 0000000e 1568111700.6,1
TIME 0000000e 1568111701.6,1
TIME 0000000e 1568111702.6,1
TIME 0000000e 1568111703.6,1
TIME 0000000e 1568111704.6,1
TIME 0000000e 1568111705.6,1
TIME 0000000e 1568111706.6,1
TIME 0000000e 1568111707.6,1
TIME 0000000e 1568111708.6,1
TIME 0000000e 1568111709.6,1
TIME 0000000e 1568111710.6,1
TIME 0000000e 1568111711.6,1
TIME 0000000e 1568111712.6,1
TIME 0000000e 1568111713.6,1
TIME 0000000e 1568111714.6,1
TIME 0000000e 1568111715.6,1
TIME 0000000e 1568111716.6,1
TIME 0000000e 1568111717.6,1
TIME 0000000e 1568111718.6,1
TIME 0000000e 1568111719.6,1
TIME 0000000e 1568111720.6,1
TIME 0000000e 1568111721.6,1
TIME 0000000e 1568111722.6,1
TIME 0000000e 1568111723.6,1
TIME 0000000e 1568111724.6,1
TIME 0000000e 1568111725.6,1
TIME 0000000e 1568111726.6,1
TIME 0000000e 1568111727.6,1
TIME 0000000e 1568111728.6,1
TIME 0000000e 1568111729.6,1
TIME 0000000e 1568111730.6,1
TIME 0000000e 1568111731.6,1
TIME 0000000e 1568111732.6,1
TIME 0000000e 1568111733.6,1
TIME 0000000e 1568111734.6,1
TIME 0000000e 1568111735.6,1
TIME 0000000e 1568111736.6,1
TIME 0000000e 1568111737.6,1
TIME 0000000e 1568111738.6,1
TIME 0000000e 1568111739.6,1
TIME 0000000e 1568111740.6,1
TIME 0000000e 1568111741.6,1
TIME 0000000e 1568111742.6,1
TIME 0000000e 1568111743.6,1
TIME 0000000e 1568111744.6,1
TIME 0000000e 1568111745.6,1
TIME 0000000e 1568111746.6,1
TIME 0000000e 1568111747.6,1
TIME 0000000e 1568111748.6,1
TIME 0000000e 1568111749.6,1
TIME 0000000e 1568111750.6,1
TIME 0000000e 1568111751.6,1
TIME 0000000e 1568111752.6,1
TIME 0000000e 1568111753.6,1
TIME 0000000e 1568111754.6,1
TIME 0000000e 1568111755.6,1
TIME 0000000e 1568111756.6,1
TIME 0000000e 1568111757.6,1
TIME 0000000e 1568111758.6,1
TIME 0000000e 1568111759.6,1
TIME 0000000e 1568111760.6,1
TIME 0000000e 1568111761.6,1
TIME 0000000e 1568111762.6,1
TIME 0000000e 1568111763.6,1
TIME 0000000e 1568111764.6,1
TIME 0000000e 1568111765.6,1
TIME 0000000e 1568111766.6,1
TIME 0000000e 1568111767.6,1
TIME 0000000e 1568111768.6,1
TIME 0000000e 1568111769.6,1
TIME 0000000e 1568111770.6,1
TIME 0000000e 1568111771.6,1
TIME 0000000e 1568111772.6,1
TIME 0000000e 1568111773.6,1
TIME 0000000e 1568111774.6,1
TIME 0000000e 1568111775.6,1
TIME 0000000e 1568111776.6,1
TIME 0000000e 1568111777.6,1
TIME 0000000e 1568111778.6,1
TIME 0000000e 1568111779.6,1
TIME 0000000e 1568111780.6,1
TIME 0000000e 1568111781.6,1
TIME 0000000e 1568111782.6,1
TIME 0000000e 1568111783.6,1
TIME 0000000e 1568111784.6,1
TIME 0000000e 1568111785.6,1
TIME 0000000e 1568111786.6,1
TIME 0000000e 1568111787.6,1
TIME 0000000e 1568111788.6,1
TIME 0000000e 1568111789.6,1
TIME 0000000e 1568111790.6,1
TIME 0000000e 1568111791.6,1
TIME 0000000e 1568111792.6,1
TIME 0000000e 1568111793.6,1
TIME 0000000e 1568111794.6,1
TIME 0000000e 1568111795.6,1
TIME 0000000e 1568111796.6,1
TIME 0000000e 1568111797.6,1
TIME 0000000e 1568111798.6,1
TIME 0000000e 1568111799.6,1
TIME 0000000e 1568111800.6,1
TIME 0000000e 1568111801.6,1
TIME 0000000e 1568111802.6,1
TIME 0000000e 1568111803.6,1
TIME 0000000e 1568111804.6,1
TIME 0000000e 1568111805.6,1
TIME 0000000e 1568111806.6,1
TIME 0000000e 1568111807.6,1
TIME 0000000e 1568111808.6,1
TIME 0000000e 1568111809.6,1
TIME 0000000e 1568111810.6,1
TIME 0000000e 1568111811.6,1
TIME 0000000e 1568111812.6,1
TIME 0000000e 1568111813.6,1
TIME 0000000e 1568111814.6,1
TIME 0000000e 1568111815.6,1
TIME 0000000e 1568111816.6,1
TIME 0000000e 1568111817.6,1
TIME 0000000e 1568111818.6,1
TIME 0000000e 1568111819.6,1
TIME 0000000e 1568111820.6,1
TIME 0000000e 1568111821.6,1
TIME 0000000e 1568111822.6,1
TIME 0000000e 1568111823.6,1
TIME 0000000e 1568111824.6,1
TIME 0000000e 1568111825.6,1
TIME 0000000e 1568111826.6,1
TIME 0000000e 1568111827.6,1
TIME 0000000e 1568111828.6,1
TIME 0000000e 1568111829.6,1
TIME 0000000e 1568111830.6,1
TIME 0000000e 1568111831.6,1
TIME 0000000e 1568111832.6,1
TIME 0000000e 1568111833.6,1
TIME 0000000e 1568111834.6,1
TIME 0000000e 1568111835.6,1
TIME 0000000e 1568111836.6,1
TIME 0000000e 1568111837.6,1
TIME 0000000e 1568111838.6,1
TIME 0000000e 1568111839.6,1
TIME 0000000e 1568111840.6,1
TIME 0000000e 1568111841.6,1
TIME 0000000e 1568111842.6,1
TIME 0000000e 1568111843.6,1
TIME 0000000e 1568111844.6,1
TIME 0000000e 1568111845.6,1
TIME 0000000e 1568111846.6,1
TIME 0000000e 1568111847.6,1
TIME 0000000e 1568111848.6,1
TIME 0000000e 1568111849.6,1
TIME 0000000e 1568111850.6,1
TIME 0000000e 1568111851.6,1
TIME 0000000e 1568111852.6,1
TIME 0000000e 1568111853.6,1
TIME 0000000e 1568111854.6,1
TIME 0000000e 1568111855.6,1
TIME 0000000e 1568111856.6,1
TIME 0000000e 1568111857.6,1
TIME 0000000e 1568111858.6,1
TIME 0000000e 1568111859.6,1
TIME 0000000e 1568111860.6,1
TIME 0000000e 1568111861.6,1
TIME 0000000e 1568111862.6,1
TIME 0000000e 1568111863.6,1
TIME 0000000e 1568111864.6,1
TIME 0000000e 1568111865.6,1
TIME 0000000e 1568111866.6,1
TIME 0000000e 1568111867.6,1
TIME 0000000e 1568111868.6,1
TIME 0000000e 1568111869.6,1
TIME 0000000e 1568111870.6,1
TIME 0000000e 1568111871.6,1
TIME 0000000e 1568111872.6,1
TIME 0000000e 1568111873.6,1
TIME 0000000e 1568111874.6,1
TIME 0000000e 1568111875.6,1
TIME 0000000e 1568111876.6,1
TIME 0000000e 1568111877.6,1
TIME 0000000e 1568111878.6,1
TIME 0000000e 1568111879.6,1
TIME 0000000e 1568111880.6,1
TIME 0000000e 1568111881.6,1
TIME 0000000e 1568111882.6,1
TIME 0000000e 1568111883.6,1
TIME 0000000e 1568111884.6,1
TIME 0000000e 1568111885.6,1
TIME 0000000e 1568111886.6,1
TIME 0000000e 1568111887.6,1
TIME 0000000e 1568111888.6,1
TIME 0000000e 1568111889.6,1
TIME 0000000e 1568111890.6,1
TIME 0000000e 1568111891.6,1
TIME 0000000e 1568111892.6,1
TIME 0000000e 1568111893.6,1
TIME 0000000e 1568111894.6,1
TIME 0000000e 1568111895.6,1
TIME 0000000e 1568111896.6,1
TIME 0000000e 1568111897.6,1
TIME 0000000e 1568111898.6,1
TIME 0000000e 1568111899.6,1
TIME 0000000e 1568111900.6,1
TIME 0000000e 1568111901.6,1
TIME 0000000e 1568111902.6,1
TIME 0000000e 1568111903.6,1
TIME 0000000e 1568111904.6,1
TIME 0000000e 1568111905.6,1
TIME 0000000e 1568111906.6,1
TIME 0000000e 1568111907.6,1
TIME 0000000e 1568111908.6,1
TIME 0000000e 1568111909.6,1
TIME 0000000e 1568111910.6,1
TIME 0000000e 1568111911.6,1
TIME 0000000e 1568111912.6,1
TIME 0000000e 1568111913.6,1
TIME 0000000e 1568111914.6,1
TIME 0000000e 1568111915.6,1
TIME 0000000e 1568111916.6,1
TIME 0000000e 1568111917.6,1
TIME 0000000e 1568111918.6,1
TIME 0000000e 1568111919.6,1
TIME 0000000e 1568111920.6,1
TIME 0000000e 1568111921.6,1
TIME 0000000e 1568111922.6,1
TIME 0000000e 1568111923.6,1
TIME 0000000e 1568111924.6,1
TIME 0000000e 1568111925.6,1
TIME 0000000e 1568111926.6,1
TIME 0000000e 1568111927.6,1
TIME 0000000e 1568111928.6,1
TIME 0000000e 1568111929.6,1
TIME 0000000e 1568111930.6,1
TIME 0000000e 1568111931.6,1
TIME 0000000e 1568111932.6,1
TIME 0000000e 1568111933.6,1
TIME 0000000e 1568111934.6,1
TIME 0000000e 1568111935.6,1
TIME 0000000e 1568111936.6,1
TIME 0000000e 1568111937.6,1
TIME 0000000e 1568111938.6,1
TIME 0000000e 1568111939.6,1
TIME 0000000e 1568111940.6,1
TIME 0000000e 1568111941.6,1
TIME 0000000e 1568111942.6,1
TIME 0000000e 1568111943.6,1
TIME 0000000e 1568111944.6,1
TIME 0000000e 1568111945.6,1
TIME 0000000e 1568111946.6,1
TIME 0000000e 1568111947.6,1
TIME 0000000e 1568111948.6,1
TIME 0000000e 1568111949.6,1
TIME 0000000e 1568111950.6,1
TIME 0000000e 1568111951.6,1
TIME 0000000e 1568111952.6,1
TIME 0000000e 1568111953.6,1
TIME 0000000e 1568111954.6,1
TIME 0000000e 1568111955.6,1
TIME 0000000e 1568111956.6,1
TIME 0000000e 1568111957.6,1
TIME 0000000e 1568111958.6,1
TIME 0000000e 1568111959.6,1
TIME 0000000e 1568111960.6,1
TIME 0000000e 1568111961.6,1
TIME 0000000e 1568111962.6,1
TIME 0000000e 1568111963.6,1
TIME 0000000e 1568111964.6,1
TIME 0000000e 1568111965.6,1
TIME 0000000e 1568111966.6,1
TIME 0000000e 1568111967.6,1
TIME 0000000e 1568111968.6,1
TIME 0000000e 1568111969.6,1
TIME 0000000e 1568111970.6,1
TIME 0000000e 1568111971.6,1
TIME 0000000e 1568111972.6,1
TIME 0000000e 1568111973.6,1
TIME 0000000e 1568111974.6,1
TIME 0000000e 1568111975.6,1
TIME 0000000e 1568111976.6,1
TIME 0000000e 1568111977.6,1
TIME 0000000e 1568111978.6,1
TIME 0000000e 1568111979.6,1
TIME 0000000e 1568111980.6,1
TIME 0000000e 1568111981.6,1
TIME 0000000e 1568111982.6,1
TIME 0000000e 1568111983.6,1
TIME 0000000e 1568111984.6,1
TIME 0000000e 1568111985.6,1
TIME 0000000e 1568111986.6,1
TIME 0000000e 1568111987.6,1
TIME 0000000e 1568111988.6,1
TIME 0000000e 1568111989.6,1
TIME 0000000e 1568111990.6,1
TIME 0000000e 1568111991.6,1
TIME 0000000e 1568111992.6,1
TIME 0000000e 1568111993.6,1
TIME 0000000e 1568111994.6,1
TIME 0000000e 1568111995.6,1
TIME 0000000e 1568111996.6,1
TIME 0000000e 1568111997.6,1
TIME 0000000e 1568111998.6,1
TIME 0000000e 1568111999.6,1
TIME 0000000e 1568112000.6,1
TIME 0000000e 1568112001.6,1
TIME 0000000e 1568112002.6,1
TIME 0000000e 1568112003.6,1
TIME 0000000e 1568112004.6,1
TIME 0000000e 1568112005.6,1
TIME 0000000e 1568112006.6,1
TIME 0000000e 1568112007.6,1
TIME 0000000e 1568112008.6,1
TIME 0000000e 1568112009.6,1
TIME 0000000e 1568112010.6,1
TIME 0000000e 1568112011.6,1
TIME 0000000e 1568112012.6,1
TIME 0000000e 1568112013.6,1
TIME 0000000e 1568112014.6,1
TIME 0000000e 1568112015.6,1
TIME 0000000e 1568112016.6,1
TIME 0000000e 1568112017.6,1
TIME 0000000e 1568112018.6,1
TIME 0000000e 1568112019.6,1
TIME 0000000e 1568112020.6,1
TIME 0000000e 1568112021.6,1
TIME 0000000e 1568112022.6,1
TIME 0000000e 1568112023.6,1
TIME 0000000e 1568112024.6,1
TIME 0000000e 1568112025.6,1
TIME 0000000e 1568112026.6,1
TIME 0000000e 1568112027.6,1
TIME 0000000e 1568112028.6,1
TIME 0000000e 1568112029.6,1
TIME 0000000e 1568112030.6,1
TIME 0000000e 1568112031.6,1
TIME 0000000e 1568112032.6,1
TIME 0000000e 1568112033.6,1
TIME 0000000e 1568112034.6,1
TIME 0000000e 1568112035.6,1
TIME 0000000e 1568112036.6,1
TIME 0000000e 1568112037.6,1
TIME 0000000e 1568112038.6,1
TIME 0000000e 1568112039.6,1
TIME 0000000e 1568112040.6,1
TIME 0000000e 1568112041.6,1
TIME 0000000e 1568112042.6,1
TIME 0000000e 1568112043.6,1
TIME 0000000e 1568112044.6,1
TIME 0000000e 1568112045.6,1
TIME 0000000e 1568112046.6,1
TIME 0000000e 1568112047.6,1
TIME 0000000e 1568112048.6,1
TIME 0000000e 1568112049.6,1
TIME 0000000e 1568112050.6,1
TIME 0000000e 1568112051.6,1
TIME 0000000e 1568112052.6,1
TIME 0000000e 1568112053.6,1
TIME 0000000e 1568112054.6,1
TIME 0000000e 1568112055.6,1
TIME 0000000e 1568112056.6,1
TIME 0000000e 1568112057.6,1
TIME 0000000e 1568112058.6,1
TIME 0000000e 1568112059.6,1
TIME 0000000e 1568112060.6,1
TIME 0000000e 1568112061.6,1
TIME 0000000e 1568112062.6,1
TIME 0000000e 1568112063.6,1
TIME 0000000e 1568112064.6,1
TIME 0000000e 1568112065.6,1
TIME 0000000e 1568112066.6,1
TIME 0000000e 1568112067.6,1
TIME 0000000e 1568112068.6,1
TIME 0000000e 1568112069.6,1
TIME 0000000e 1568112070.6,1
TIME 0000000e 1568112071.6,1
TIME 0000000e 1568112072.6,1
TIME 0000000e 1568112073.6,1
TIME 0000000e 1568112074.6,1
TIME 0000000e 1568112075.6,1
TIME 0000000e 1568112076.6,1
TIME 0000000e 1568112077.6,1
TIME 0000000e 1568112078.6,1
TIME 0000000e 1568112079.6,1
TIME 0000000e 1568112080.6,1
TIME 0000000e 1568112081.6,1
TIME 0000000e 1568112082.6,1
TIME 0000000e 1568112083.6,1
TIME 0000000e 1568112084.6,1
TIME 0000000e 1568112085.6,1
TIME 0000000e 1568112086.6,1
TIME 0000000e 1568112087.6,1
TIME 0000000e 1568112088.6,1
TIME 0000000e 1568112089.6,1
TIME 0000000e 1568112090.6,1
TIME 0000000e 1568112091.6,1
TIME 0000000e 1568112092.6,1
TIME 0000000e 1568112093.6,1
TIME 0000000e 1568112094.6,1
TIME 0000000e 1568112095.6,1
TIME 0000000e 1568112096.6,1
TIME 0000000e 1568112097.6,1
TIME 0000000e 1568112098.6,1
TIME 0000000e 1568112099.6,1
TIME 0000000e 1568112100.6,1
TIME 0000000e 1568112101.6,1
TIME 0000000e 1568112102.6,1
TIME 0000000e 1568112103.6,1
TIME 0000000e 1568112104.6,1
TIME 0000000e 1568112105.6,1
TIME 0000000e 1568112106.6,1
TIME 0000000e 1568112107.6,1
TIME 0000000e 1568112108.6,1
TIME 0000000e 1568112109.6,1
TIME 0000000e 1568112110.6,1
TIME 0000000e 1568112111.6,1
TIME 0000000e 1568112112.6,1
TIME 0000000e 1568112113.6,1
TIME 0000000e 1568112114.6,1
TIME 0000000e 1568112115.6,1
TIME 0000000e 1568112116.6,1
TIME 0000000e 1568112117.6,1
TIME 0000000e 1568112118.6,1
TIME 0000000e 1568112119.6,1
TIME 0000000e 1568112120.6,1
TIME 0000000e 1568112121.6,1
TIME 0000000e 1568112122.6,1
TIME 0000000e 1568112123.6,1
TIME 0000000e 1568112124.6,1
TIME 0000000e 1568112125.6,1
TIME 0000000e 1568112126.6,1
TIME 0000000e 1568112127.6,1
TIME 0000000e 1568112128.6,1
TIME 0000000e 1568112129.6,1
TIME 0000000e 1568112130.6,1
TIME 0000000e 1568112131.6,1
TIME 0000000e 1568112132.6,1
TIME 0000000e 1568112133.6,1
TIME 0000000e 1568112134.6,1
TIME 0000000e 1568112135.6,1
TIME 0000000e 1568112136.6,1
TIME 0000000e 1568112137.6,1
TIME 0000000e 1568112138.6,1
TIME 0000000e 1568112139.6,1
TIME 0000000e 1568112140.6,1
TIME 0000000e 1568112141.6,1
TIME 0000000e 1568112142.6,1
TIME 0000000e 1568112143.6,1
TIME 0000000e 1568112144.6,1
TIME 0000000e 1568112145.6,1
TIME 0000000e 1568112146.6,1
TIME 0000000e 1568112147.6,1
TIME 0000000e 1568112148.6,1
TIME 0000000e 1568112149.6,1
TIME 0000000e 1568112150.6,1
TIME 0000000e 1568112151.6,1
TIME 0000000e 1568112152.6,1
TIME 0000000e 1568112153.6,1
TIME 0000000e 1568112154.6,1
TIME 0000000e 1568112155.6,1
TIME 0000000e 1568112156.6,1
TIME 0000000e 1568112157.6,1
TIME 0000000e 1568112158.6,1
TIME 0000000e 1568112159.6,1
TIME 0000000e 1568112160.6,1
TIME 0000000e 1568112161.6,1
TIME 0000000e 1568112162.6,1
TIME 0000000e 1568112163.6,1
TIME 0000000e 1568112164.6,1
TIME 0000000e 1568112165.6,1
TIME 0000000e 1568112166.6,1
TIME 0000000e 1568112167.6,1
TIME 0000000e 1568112168.6,1
TIME 0000000e 1568112169.6,1
TIME 0000000e 1568112170.6,1
TIME 0000000e 1568112171.6,1
TIME 0000000e 1568112172.6,1
TIME 0000000e 1568112173.6,1
TIME 0000000e 1568112174.6,1
TIME 0000000e 1568112175.6,1
TIME 0000000e 1568112176.6,1
TIME 0000000e 1568112177.6,1
TIME 0000000e 1568112178.6,1
TIME 0000000e 1568112179.6,1
TIME 0000000e 1568112180.6,1
TIME 0000000e 1568112181.6,1
TIME 0000000e 1568112182.6,1
TIME 0000000e 1568112183.6,1
TIME 0000000e 1568112184.6,1
TIME 0000000e 1568112185.6,1
TIME 0000000e 1568112186.6,1
TIME 0000000e 1568112187.6,1
TIME 0000000e 1568112188.6,1
TIME 0000000e 1568112189.6,1
TIME 0000000e 1568112190.6,1
TIME 0000000e 1568112191.6,1
TIME 0000000e 1568112192.6,1
TIME 0000000e 1568112193.6,1
TIME 0000000e 1568112194.6,1
TIME 0000000e 1568112195.6,1
TIME 0000000e 1568112196.6,1
TIME 0000000e 1568112197.6,1
TIME 0000000e 1568112198.6,1
TIME 0000000e 1568112199.6,1
TIME 0000000e 1568112200.6,1
TIME 0000000e 1568112201.6,1
TIME 0000000e 1568112202.6,1
TIME 0000000e 1568112203.6,1
TIME 0000000e 1568112204.6,1
TIME 0000000e 1568112205.6,1
TIME 0000000e 1568112206.6,1
TIME 0000000e 1568112207.6,1
TIME 0000000e 1568112208.6,1
TIME 0000000e 1568112209.6,1
TIME 0000000e 1568112210.6,1
TIME 0000000e 1568112211.6,1
TIME 0000000e 1568112212.6,1
TIME 0000000e 1568112213.6,1
TIME 0000000e 1568112214.6,1
TIME 0000000e 1568112215.6,1
TIME 0000000e 1568112216.6,1
TIME 0000000e 1568112217.6,1
TIME 0000000e 1568112218.6,1
TIME 0000000e 1568112219.6,1
TIME 0000000e 1568112220.6,1
TIME 0000000e 1568112221.6,1
TIME 0000000e 1568112222.6,1
TIME 0000000e 1568112223.6,1
TIME 0000000e 1568112224.6,1
TIME 0000000e 1568112225.6,1
TIME 0000000e 1568112226.6,1
TIME 0000000e 1568112227.6,1
TIME 0000000e 1568112228.6,1
TIME 0000000e 1568112229.6,1
TIME 0000000e 1568112230.6,1
TIME 0000000e 1568112231.6,1
TIME 0000000e 1568112232.6,1
TIME 0000000e 1568112233.6,1
TIME 0000000e 1568112234.6,1
TIME 0000000e 1568112235.6,1
TIME 0000000e 1568112236.6,1
TIME 0000000e 1568112237.6,1
TIME 0000000e 1568112238.6,1
TIME 0000000e 1568112239.6,1
TIME 0000000e 1568112240.6,1
TIME 0000000e 1568112241.6,1
TIME 0000000e 1568112242.6,1
TIME 0000000e 1568112243.6,1
TIME 0000000e 1568112244.6,1
TIME 0000000e 1568112245.6,1
TIME 0000000e 1568112246.6,1
TIME 0000000e 1568112247.6,1
TIME 0000000e 1568112248.6,1
TIME 0000000e 1568112249.6,1
TIME 0000000e 1568112250.6,1
TIME 0000000e 1568112251.6,1
TIME 0000000e 1568112252.6,1
TIME 0000000e 1568112253.6,1
TIME 0000000e 1568112254.6,1
TIME 0000000e 1568112255.6,1
TIME 0000000e 1568112256.6,1
TIME 0000000e 1568112257.6,1
TIME 0000000e 1568112258.6,1
TIME 0000000e 1568112259.6,1
TIME 0000000e 1568112260.6,1
TIME 0000000e 1568112261.6,1
TIME 0000000e 1568112262.6,1
TIME 0000000e 1568112263.6,1
TIME 0000000e 1568112264.6,1
TIME 0000000e 1568112265.6,1
TIME 0000000e 1568112266.6,1
TIME 0000000e 1568112267.6,1
TIME 0000000e 1568112268.6,1
TIME 0000000e 1568112269.6,1
TIME 0000000e 1568112270.6,1
TIME 0000000e 1568112271.6,1
TIME 0000000e 1568112272.6,1
TIME 0000000e 1568112273.6,1
TIME 0000000e 1568112274.6,1
TIME 0000000e 1568112275.6,1
TIME 0000000e 1568112276.6,1
TIME 0000000e 1568112277.6,1
TIME 0000000e 1568112278.6,1
TIME 0000000e 1568112279.6,1
TIME 0000000e 1568112280.6,1
TIME 0000000e 1568112281.6,1
TIME 0000000e 1568112282.6,1
TIME 0000000e 1568112283.6,1
TIME 0000000e 1568112284.6,1
TIME 0000000e 1568112285.6,1
TIME 0000000e 1568112286.6,1
TIME 0000000e 1568112287.6,1
TIME 0000000e 1568112288.6,1
TIME 0000000e 1568112289.6,1
TIME 0000000e 1568112290.6,1
TIME 0000000e 1568112291.6,1
TIME 0000000e 1568112292.6,1
TIME 0000000e 1568112293.6,1
TIME 0000000e 1568112294.6,1
TIME 0000000e 1568112295.6,1
TIME 0000000e 1568112296.6,1
TIME 0000000e 1568112297.6,1
TIME 0000000e 1568112298.6,1
TIME 0000000e 1568112299.6,1
TIME 0000000e 1568112300.6,1
TIME 0000000e 1568112301.6,1
TIME 0000000e 1568112302.6,1
TIME 0000000e 1568112303.6,1
TIME 0000000e 1568112304.6,1
TIME 0000000e 1568112305.6,1
TIME 0000000e 1568112306.6,1
TIME 0000000e 1568112307.6,1
TIME 0000000e 1568112308.6,1
TIME 0000000e 1568112309.6,1
TIME 0000000e 1568112310.6,1
TIME 0000000e 1568112311.6,1
TIME 0000000e 1568112312.6,1
TIME 0000000e 1568112313.6,1
TIME 0000000e 1568112314.6,1
TIME 0000000e 1568112315.6,1
TIME 0000000e 1568112316.6,1
TIME 0000000e 1568112317.6,1
TIME 0000000e 1568112318.6,1
TIME 0000000e 1568112319.6,1
TIME 0000000e 1568112320.6,1
TIME 0000000e 1568112321.6,1
TIME 0000000e 1568112322.6,1
TIME 0000000e 1568112323.6,1
TIME 0000000e 1568112324.6,1
TIME 0000000e 1568112325.6,1
TIME 0000000e 1568112326.6,1
TIME 0000000e 1568112327.6,1
TIME 0000000e 1568112328.6,1
TIME 0000000e 1568112329.6,1
TIME 0000000e 1568112330.6,1
TIME 0000000e 1568112331.6,1
TIME 0000000e 1568112332.6,1
TIME 0000000e 1568112333.6,1
TIME 0000000e 1568112334.6,1
TIME 0000000e 1568112335.6,1
TIME 0000000e 1568112336.6,1
TIME 0000000e 1568112337.6,1
TIME 0000000e 1568112338.6,1
TIME 0000000e 1568112339.6,1
TIME 0000000e 1568112340.6,1
TIME 0000000e 1568112341.6,1
TIME 0000000e 1568112342.6,1
TIME 0000000e 1568112343.6,1
TIME 0000000e 1568112344.6,1
TIME 0000000e 1568112345.6,1
TIME 0000000e 1568112346.6,1
TIME 0000000e 1568112347.6,1
TIME 0000000e 1568112348.6,1
TIME 0000000e 1568112349.6,1
TIME 0000000e 1568112350.6,1
TIME 0000000e 1568112351.6,1
TIME 0000000e 1568112352.6,1
TIME 0000000e 1568112353.6,1
TIME 0000000e 1568112354.6,1
TIME 0000000e 1568112355.6,1
TIME 0000000e 1568112356.6,1
TIME 0000000e 1568112357.6,1
TIME 0000000e 1568112358.6,1
TIME 0000000e 1568112359.6,1
TIME 0000000e 1568112360.6,1
TIME 0000000e 1568112361.6,1
TIME 0000000e 1568112362.6,1
TIME 0000000e 1568112363.6,1
TIME 0000000e 1568112364.6,1
TIME 0000000e 1568112365.6,1
TIME 0000000e 1568112366.6,1
TIME 0000000e 1568112367.6,1
TIME 0000000e 1568112368.6,1
TIME 0000000e 1568112369.6,1
TIME 0000000e 1568112370.6,1
TIME 0000000e 1568112371.6,1
TIME 0000000e 1568112372.6,1
TIME 0000000e 1568112373.6,1
TIME 0000000e 1568112374.6,1
TIME 0000000e 1568112375.6,1
TIME 0000000e 1568112376.6,1
TIME 0000000e 1568112377.6,1
TIME 0000000e 1568112378.6,1
TIME 0000000e 1568112379.6,1
TIME 0000000e 1568112380.6,1
TIME 0000000e 1568112381.6,1
TIME 0000000e 1568112382.6,1
TIME 0000000e 1568112383.6,1
TIME 0000000e 1568112384.6,1
TIME 0000000e 1568112385.6,1
TIME 0000000e 1568112386.6,1
TIME 0000000e 1568112387.6,1
TIME 0000000e 1568112388.6,1
TIME 0000000e 1568112389.6,1
TIME 0000000e 1568112390.6,1
TIME 0000000e 1568112391.6,1
TIME 0000000e 1568112392.6,1
TIME 0000000e 1568112393.6,1
TIME 0000000e 1568112394.6,1
TIME 0000000e 1568112395.6,1
TIME 0000000e 1568112396.6,1
TIME 0000000e 1568112397.6,1
TIME 0000000e 1568112398.6,1
TIME 0000000e 1568112399.6,1
TIME 0000000e 1568112400.6,1
TIME 0000000e 1568112401.6,1
TIME 0000000e 1568112402.6,1
TIME 0000000e 1568112403.6,1
TIME 0000000e 1568112404.6,1
TIME 0000000e 1568112405.6,1
TIME 0000000e 1568112406.6,1
TIME 0000000e 1568112407.6,1
TIME 0000000e 1568112408.6,1
TIME 0000000e 1568112409.6,1
TIME 0000000e 1568112410.6,1
TIME 0000000e 1568112411.6,1
TIME 0000000e 1568112412.6,1
TIME 0000000e 1568112413.6,1
TIME 0000000e 1568112414.6,1
TIME 0000000e 1568112415.6,1
TIME 0000000e 1568112416.6,1
TIME 0000000e 1568112417.6,1
TIME 0000000e 1568112418.6,1
TIME 0000000e 1568112419.6,1
TIME 0000000e 1568112420.6,1
TIME 0000000e 1568112421.6,1
TIME 0000000e 1568112422.6,1
TIME 0000000e 1568112423.6,1
TIME 0000000e 1568112424.6,1
TIME 0000000e 1568112425.6,1
TIME 0000000e 1568112426.6,1
TIME 0000000e 1568112427.6,1
TIME 0000000e 1568112428.6,1
TIME 0000000e 1568112429.6,1
TIME 0000000e 1568112430.6,1
TIME 0000000e 1568112431.6,1
TIME 0000000e 1568112432.6,1
TIME 0000000e 1568112433.6,1
TIME 0000000e 1568112434.6,1
TIME 0000000e 1568112435.6,1
TIME 0000000e 1568112436.6,1
TIME 0000000e 1568112437.6,1
TIME 0000000e 1568112438.6,1
TIME 0000000e 1568112439.6,1
TIME 0000000e 1568112440.6,1
TIME 0000000e 1568112441.6,1
TIME 0000000e 1568112442.6,1
TIME 0000000e 1568112443.6,1
TIME 0000000e 1568112444.6,1
TIME 0000000e 1568112445.6,1
TIME 0000000e 1568112446.6,1
TIME 0000000e 1568112447.6,1
TIME 0000000e 1568112448.6,1
TIME 0000000e 1568112449.6,1
TIME 0000000e 1568112450.6,1
TIME 0000000e 1568112451.6,1
TIME 0000000e 1568112452.6,1
TIME 0000000e 1568112453.6,1
TIME 0000000e 1568112454.6,1
TIME 0000000e 1568112455.6,1
TIME 0000000e 1568112456.6,1
TIME 0000000e 1568112457.6,1
TIME 0000000e 1568112458.6,1
TIME 0000000e 1568112459.6,1
TIME 0000000e 1568112460.6,1
TIME 0000000e 1568112461.6,1
TIME 0000000e 1568112462.6,1
TIME 0000000e 1568112463.6,1
TIME 0000000e 1568112464.6,1
TIME 0000000e 1568112465.6,1
TIME 0000000e 1568112466.6,1
TIME 0000000e 1568112467.6,1
TIME 0000000e 1568112468.6,1
TIME 0000000e 1568112469.6,1
TIME 0000000e 1568112470.6,1
TIME 0000000e 1568112471.6,1
TIME 0000000e 1568112472.6,1
TIME 0000000e 1568112473.6,1
TIME 0000000e 1568112474.6,1
TIME 0000000e 1568112475.6,1
[...]
TIME 0000000e 1568123479.6,1
TIME 0000000e 1568123480.6,1
TIME 0000000e 1568123481.6,1
TIME 0000000e 1568123482.6,1
TIME 0000000e 1568123483.6,1
TIME 0000000e 1568123484.6,1
TIME 0000000e 1568123485.6,1
TIME 0000000e 1568123486.6,1
TIME 0000000e 1568123487.6,1
TIME 0000000e 1568123488.6,1
TIME 0000000e 1568123489.6,1
TIME 0000000e 1568123490.6,1
TIME 0000000e 1568123491.6,1
TIME 0000000e 1568123492.6,1
TIME 0000000e 1568123493.6,1
TIME 0000000e 1568123494.6,1
TIME 0000000e 1568123495.6,1
TIME 0000000e 1568123496.6,1
TIME 0000000e 1568123497.6,1
TIME 0000000e 1568123498.6,1
TIME 0000000e 1568123499.6,1
TIME 0000000e 1568123500.6,1
TIME 0000000e 1568123501.6,1
TIME 0000000e 1568123502.6,1
TIME 0000000e 1568123503.6,1
TIME 0000000e 1568123504.6,1
TIME 0000000e 1568123505.6,1
TIME 0000000e 1568123506.6,1
TIME 0000000e 1568123507.6,1
TIME 0000000e 1568123508.6,1
TIME 0000000e 1568123509.6,1
TIME 0000000e 1568123510.6,1
TIME 0000000e 1568123511.6,1
TIME 0000000e 1568123512.6,1
TIME 0000000e 1568123513.6,1
TIME 0000000e 1568123514.6,1
TIME 0000000e 1568123515.6,1
TIME 0000000e 1568123516.6,1
TIME 0000000e 1568123517.6,1
TIME 0000000e 1568123518.6,1
TIME 0000000e 1568123519.6,1
TIME 0000000e 1568123520.6,1
TIME 0000000e 1568123521.6,1
TIME 0000000e 1568123522.6,1
TIME 0000000e 1568123523.6,1
TIME 0000000e 1568123524.6,1
TIME 0000000e 1568123525.6,1
TIME 0000000e 1568123526.6,1
TIME 0000000e 1568123527.6,1
TIME 0000000e 1568123528.6,1
TIME 0000000e 1568123529.6,1
TIME 0000000e 1568123530.6,1
TIME 0000000e 1568123531.6,1
TIME 0000000e 1568123532.6,1
TIME 0000000e 1568123533.6,1
TIME 0000000e 1568123534.6,1
TIME 0000000e 1568123535.6,1
TIME 0000000e 1568123536.6,1
TIME 0000000e 1568123537.6,1
TIME 0000000e 1568123538.6,1
TIME 0000000e 1568123539.6,1
TIME 0000000e 1568123540.6,1
TIME 0000000e 1568123541.6,1
TIME 0000000e 1568123542.6,1
TIME 0000000e 1568123543.6,1
TIME 0000000e 1568123544.6,1
TIME 0000000e 1568123545.6,1
TIME 0000000e 1568123546.6,1
TIME 0000000e 1568123547.6,1
TIME 0000000e 1568123548.6,1
TIME 0000000e 1568123549.6,1
TIME 0000000e 1568123550.6,1
TIME 0000000e 1568123551.6,1
TIME 0000000e 1568123552.6,1
TIME 0000000e 1568123553.6,1
TIME 0000000e 1568123554.6,1
TIME 0000000e 1568123555.6,1
TIME 0000000e 1568123556.6,1
TIME 0000000e 1568123557.6,1
TIME 0000000e 1568123558.6,1
TIME 0000000e 1568123559.6,1
TIME 0000000e 1568123560.6,1
TIME 0000000e 1568123561.6,1
TIME 0000000e 1568123562.6,1
TIME 0000000e 1568123563.6,1
TIME 0000000e 1568123564.6,1
TIME 0000000e 1568123565.6,1
TIME 0000000e 1568123566.6,1
TIME 0000000e 1568123567.6,1
TIME 0000000e 1568123568.6,1
TIME 0000000e 1568123569.6,1
TIME 0000000e 1568123570.6,1
TIME 0000000e 1568123571.6,1
TIME 0000000e 1568123572.6,1
TIME 0000000e 1568123573.6,1
TIME 0000000e 1568123574.6,1
TIME 0000000e 1568123575.6,1
TIME 0000000e 1568123576.6,1
TIME 0000000e 1568123577.6,1
TIME 0000000e 1568123578.6,1
TIME 0000000e 1568123579.6,1
TIME 0000000e 1568123580.6,1
TIME 0000000e 1568123581.6,1
TIME 0000000e 1568123582.6,1
TIME 0000000e 1568123583.6,1
TIME 0000000e 1568123584.6,1
TIME 0000000e 1568123585.6,1
TIME 0000000e 1568123586.6,1
TIME 0000000e 1568123587.6,1
TIME 0000000e 1568123588.6,1
TIME 0000000e 1568123589.6,1
TIME 0000000e 1568123590.6,1
TIME 0000000e 1568123591.6,1
TIME 0000000e 1568123592.6,1
TIME 0000000e 1568123593.6,1
TIME 0000000e 1568123594.6,1
TIME 0000000e 1568123595.6,1
TIME 0000000e 1568123596.6,1
TIME 0000000e 1568123597.6,1
TIME 0000000e 1568123598.6,1
TIME 0000000e 1568123599.6,1
TIME 0000000e 1568123600.6,1
TIME 0000000e 1568123601.6,1
TIME 0000000e 1568123602.6,1
TIME 0000000e 1568123603.6,1
TIME 0000000e 1568123604.6,1
TIME 0000000e 1568123605.6,1
TIME 0000000e 1568123606.6,1
TIME 0000000e 1568123607.6,1
TIME 0000000e 1568123608.6,1
TIME 0000000e 1568123609.6,1
TIME 0000000e 1568123610.6,1
TIME 0000000e 1568123611.6,1
TIME 0000000e 1568123612.6,1
TIME 0000000e 1568123613.6,1
TIME 0000000e 1568123614.6,1
TIME 0000000e 1568123615.6,1
TIME 0000000e 1568123616.6,1
TIME 0000000e 1568123617.6,1
TIME 0000000e 1568123618.6,1
TIME 0000000e 1568123619.6,1
TIME 0000000e 1568123620.6,1
TIME 0000000e 1568123621.6,1
TIME 0000000e 1568123622.6,1
TIME 0000000e 1568123623.6,1
TIME 0000000e 1568123624.6,1
TIME 0000000e 1568123625.6,1
TIME 0000000e 1568123626.6,1
TIME 0000000e 1568123627.6,1
TIME 0000000e 1568123628.6,1
TIME 0000000e 1568123629.6,1
TIME 0000000e 1568123630.6,1
TIME 0000000e 1568123631.6,1
TIME 0000000e 1568123632.6,1
TIME 0000000e 1568123633.6,1
TIME 0000000e 1568123634.6,1
TIME 0000000e 1568123635.6,1
TIME 0000000e 1568123636.6,1
TIME 0000000e 1568123637.6,1
TIME 0000000e 1568123638.6,1
TIME 0000000e 1568123639.6,1
TIME 0000000e 1568123640.6,1
TIME 0000000e 1568123641.6,1
TIME 0000000e 1568123642.6,1
TIME 0000000e 1568123643.6,1
TIME 0000000e 1568123644.6,1
TIME 0000000e 1568123645.6,1
TIME 0000000e 1568123646.6,1
TIME 0000000e 1568123647.6,1
TIME 0000000e 1568123648.6,1
TIME 0000000e 1568123649.6,1
TIME 0000000e 1568123650.6,1
TIME 0000000e 1568123651.6,1
TIME 0000000e 1568123652.6,1
TIME 0000000e 1568123653.6,1
TIME 0000000e 1568123654.6,1
TIME 0000000e 1568123655.6,1
TIME 0000000e 1568123656.6,1
TIME 0000000e 1568123657.6,1
TIME 0000000e 1568123658.6,1
TIME 0000000e 1568123659.6,1
TIME 0000000e 1568123660.6,1
TIME 0000000e 1568123661.6,1
TIME 0000000e 1568123662.6,1
TIME 0000000e 1568123663.6,1
TIME 0000000e 1568123664.6,1
TIME 0000000e 1568123665.6,1
TIME 0000000e 1568123666.6,1
TIME 0000000e 1568123667.6,1
TIME 0000000e 1568123668.6,1
TIME 0000000e 1568123669.6,1
TIME 0000000e 1568123670.6,1
TIME 0000000e 1568123671.6,1
TIME 0000000e 1568123672.6,1
TIME 0000000e 1568123673.6,1
TIME 0000000e 1568123674.6,1
TIME 0000000e 1568123675.6,1
TIME 0000000e 1568123676.6,1
TIME 0000000e 1568123677.6,1
TIME 0000000e 1568123678.6,1
TIME 0000000e 1568123679.6,1
TIME 0000000e 1568123680.6,1
TIME 0000000e 1568123681.6,1
TIME 0000000e 1568123682.6,1
TIME 0000000e 1568123683.6,1
TIME 0000000e 1568123684.6,1
TIME 0000000e 1568123685.6,1
TIME 0000000e 1568123686.6,1
TIME 0000000e 1568123687.6,1
TIME 0000000e 1568123688.6,1
TIME 0000000e 1568123689.6,1
TIME 0000000e 1568123690.6,1
TIME 0000000e 1568123691.6,1
TIME 0000000e 1568123692.6,1
TIME 0000000e 1568123693.6,1
TIME 0000000e 1568123694.6,1
TIME 0000000e 1568123695.6,1
TIME 0000000e 1568123696.6,1
TIME 0000000e 1568123697.6,1
TIME 0000000e 1568123698.6,1
TIME 0000000e 1568123699.6,1
TIME 0000000e 1568123700.6,1
TIME 0000000e 1568123701.6,1
TIME 0000000e 1568123702.6,1
TIME 0000000e 1568123703.6,1
TIME 0000000e 1568123704.6,1
TIME 0000000e 1568123705.6,1
TIME 0000000e 1568123706.6,1
TIME 0000000e 1568123707.6,1
TIME 0000000e 1568123708.6,1
TIME 0000000e 1568123709.6,1
TIME 0000000e 1568123710.6,1
TIME 0000000e 1568123711.6,1
TIME 0000000e 1568123712.6,1
TIME 0000000e 1568123713.6,1
TIME 0000000e 1568123714.6,1
TIME 0000000e 1568123715.6,1
TIME 0000000e 1568123716.6,1
TIME 0000000e 1568123717.6,1
TIME 0000000e 1568123718.6,1
TIME 0000000e 1568123719.6,1
TIME 0000000e 1568123720.6,1
TIME 0000000e 1568123721.6,1
TIME 0000000e 1568123722.6,1
TIME 0000000e 1568123723.6,1
TIME 0000000e 1568123724.6,1
TIME 0000000e 1568123725.6,1
TIME 0000000e 1568123726.6,1
TIME 0000000e 1568123727.6,1
TIME 0000000e 1568123728.6,1
TIME 0000000e 1568123729.6,1
TIME 0000000e 1568123730.6,1
TIME 0000000e 1568123731.6,1
TIME 0000000e 1568123732.6,1
TIME 0000000e 1568123733.6,1
TIME 0000000e 1568123734.6,1
TIME 0000000e 1568123735.6,1
TIME 0000000e 1568123736.6,1
TIME 0000000e 1568123737.6,1
TIME 0000000e 1568123738.6,1
TIME 0000000e 1568123739.6,1
TIME 0000000e 1568123740.6,1
TIME 0000000e 1568123741.6,1
TIME 0000000e 1568123742.6,1
TIME 0000000e 1568123743.6,1
TIME 0000000e 1568123744.6,1
TIME 0000000e 1568123745.6,1
TIME 0000000e 1568123746.6,1
TIME 0000000e 1568123747.6,1
TIME 0000000e 1568123748.6,1
TIME 0000000e 1568123749.6,1
TIME 0000000e 1568123750.6,1
TIME 0000000e 1568123751.6,1
TIME 0000000e 1568123752.6,1
TIME 0000000e 1568123753.6,1
TIME 0000000e 1568123754.6,1
TIME 0000000e 1568123755.6,1
TIME 0000000e 1568123756.6,1
TIME 0000000e 1568123757.6,1
TIME 0000000e 1568123758.6,1
TIME 0000000e 1568123759.6,1
TIME 0000000e 1568123760.6,1
TIME 0000000e 1568123761.6,1
TIME 0000000e 1568123762.6,1
TIME 0000000e 1568123763.6,1
TIME 0000000e 1568123764.6,1
TIME 0000000e 1568123765.6,1
TIME 0000000e 1568123766.6,1
TIME 0000000e 1568123767.6,1
TIME 0000000e 1568123768.6,1
TIME 0000000e 1568123769.6,1
TIME 0000000e 1568123770.6,1
TIME 0000000e 1568123771.6,1
TIME 0000000e 1568123772.6,1
TIME 0000000e 1568123773.6,1
TIME 0000000e 1568123774.6,1
TIME 0000000e 1568123775.6,1
TIME 0000000e 1568123776.6,1
TIME 0000000e 1568123777.6,1
TIME 0000000e 1568123778.6,1
TIME 0000000e 1568123779.6,1
TIME 0000000e 1568123780.6,1
TIME 0000000e 1568123781.6,1
TIME 0000000e 1568123782.6,1
TIME 0000000e 1568123783.6,1
TIME 0000000e 1568123784.6,1
TIME 0000000e 1568123785.6,1
TIME 0000000e 1568123786.6,1
TIME 0000000e 1568123787.6,1
TIME 0000000e 1568123788.6,1
TIME 0000000e 1568123789.6,1
TIME 0000000e 1568123790.6,1
TIME 0000000e 1568123791.6,1
TIME 0000000e 1568123792.6,1
TIME 0000000e 1568123793.6,1
TIME 0000000e 1568123794.6,1
TIME 0000000e 1568123795.6,1
TIME 0000000e 1568123796.6,1
TIME 0000000e 1568123797.6,1
TIME 0000000e 1568123798.6,1
TIME 0000000e 1568123799.6,1
TIME 0000000e 1568123800.6,1
TIME 0000000e 1568123801.6,1
TIME 0000000e 1568123802.6,1
TIME 0000000e 1568123803.6,1
TIME 0000000e 1568123804.6,1
TIME 0000000e 1568123805.6,1
TIME 0000000e 1568123806.6,1
TIME 0000000e 1568123807.6,1
TIME 0000000e 1568123808.6,1
TIME 0000000e 1568123809.6,1
TIME 0000000e 1568123810.6,1
TIME 0000000e 1568123811.6,1
TIME 0000000e 1568123812.6,1
TIME 0000000e 1568123813.6,1
TIME 0000000e 1568123814.6,1
TIME 0000000e 1568123815.6,1
TIME 0000000e 1568123816.6,1
TIME 0000000e 1568123817.6,1
TIME 0000000e 1568123818.6,1
TIME 0000000e 1568123819.6,1
TIME 0000000e 1568123820.6,1
TIME 0000000e 1568123821.6,1
TIME 0000000e 1568123822.6,1
TIME 0000000e 1568123823.6,1
TIME 0000000e 1568123824.6,1
TIME 0000000e 1568123825.6,1
TIME 0000000e 1568123826.6,1
TIME 0000000e 1568123827.6,1
TIME 0000000e 1568123828.6,1
TIME 0000000e 1568123829.6,1
TIME 0000000e 1568123830.6,1
TIME 0000000e 1568123831.6,1
TIME 0000000e 1568123832.6,1
TIME 0000000e 1568123833.6,1
TIME 0000000e 1568123834.6,1
TIME 0000000e 1568123835.6,1
TIME 0000000e 1568123836.6,1
TIME 0000000e 1568123837.6,1
TIME 0000000e 1568123838.6,1
TIME 0000000e 1568123839.6,1
TIME 0000000e 1568123840.6,1
TIME 0000000e 1568123841.6,1
TIME 0000000e 1568123842.6,1
TIME 0000000e 1568123843.6,1
TIME 0000000e 1568123844.6,1
TIME 0000000e 1568123845.6,1
TIME 0000000e 1568123846.6,1
TIME 0000000e 1568123847.6,1
TIME 0000000e 1568123848.6,1
TIME 0000000e 1568123849.6,1
TIME 0000000e 1568123850.6,1
TIME 0000000e 1568123851.6,1
TIME 0000000e 1568123852.6,1
TIME 0000000e 1568123853.6,1
TIME 0000000e 1568123854.6,1
TIME 0000000e 1568123855.6,1
TIME 0000000e 1568123856.6,1
TIME 0000000e 1568123857.6,1
TIME 0000000e 1568123858.6,1
TIME 0000000e 1568123859.6,1
TIME 0000000e 1568123860.6,1
TIME 0000000e 1568123861.6,1
TIME 0000000e 1568123862.6,1
TIME 0000000e 1568123863.6,1
TIME 0000000e 1568123864.6,1
TIME 0000000e 1568123865.6,1
TIME 0000000e 1568123866.6,1
TIME 0000000e 1568123867.6,1
TIME 0000000e 1568123868.6,1
TIME 0000000e 1568123869.6,1
TIME 0000000e 1568123870.6,1
TIME 0000000e 1568123871.6,1
TIME 0000000e 1568123872.6,1
TIME 0000000e 1568123873.6,1
TIME 0000000e 1568123874.6,1
TIME 0000000e 1568123875.6,1
TIME 0000000e 1568123876.6,1
TIME 0000000e 1568123877.6,1
TIME 0000000e 1568123878.6,1
TIME 0000000e 1568123879.6,1
TIME 0000000e 1568123880.6,1
TIME 0000000e 1568123881.6,1
TIME 0000000e 1568123882.6,1
TIME 0000000e 1568123883.6,1
TIME 0000000e 1568123884.6,1
TIME 0000000e 1568123885.6,1
TIME 0000000e 1568123886.6,1
TIME 0000000e 1568123887.6,1
TIME 0000000e 1568123888.6,1
TIME 0000000e 1568123889.6,1
TIME 0000000e 1568123890.6,1
TIME 0000000e 1568123891.6,1
TIME 0000000e 1568123892.6,1
TIME 0000000e 1568123893.6,1
TIME 0000000e 1568123894.6,1
TIME 0000000e 1568123895.6,1
TIME 0000000e 1568123896.6,1
TIME 0000000e 1568123897.6,1
TIME 0000000e 1568123898.6,1
TIME 0000000e 1568123899.6,1
TIME 0000000e 1568123900.6,1
TIME 0000000e 1568123901.6,1
TIME 0000000e 1568123902.6,1
TIME 0000000e 1568123903.6,1
TIME 0000000e 1568123904.6,1
TIME 0000000e 1568123905.6,1
TIME 0000000e 1568123906.6,1
TIME 0000000e 1568123907.6,1
TIME 0000000e 1568123908.6,1
TIME 0000000e 1568123909.6,1
TIME 0000000e 1568123910.6,1
TIME 0000000e 1568123911.6,1
TIME 0000000e 1568123912.6,1
TIME 0000000e 1568123913.6,1
TIME 0000000e 1568123914.6,1
TIME 0000000e 1568123915.6,1
TIME 0000000e 1568123916.6,1
TIME 0000000e 1568123917.6,1
TIME 0000000e 1568123918.6,1
TIME 0000000e 1568123919.6,1
TIME 0000000e 1568123920.6,1
TIME 0000000e 1568123921.6,1
TIME 0000000e 1568123922.6,1
TIME 0000000e 1568123923.6,1
TIME 0000000e 1568123924.6,1
TIME 0000000e 1568123925.6,1
TIME 0000000e 1568123926.6,1
TIME 0000000e 1568123927.6,1
TIME 0000000e 1568123928.6,1
TIME 0000000e 1568123929.6,1
TIME 0000000e 1568123930.6,1
TIME 0000000e 1568123931.6,1
TIME 0000000e 1568123932.6,1
TIME 0000000e 1568123933.6,1
TIME 0000000e 1568123934.6,1
TIME 0000000e 1568123935.6,1
TIME 0000000e 1568123936.6,1
TIME 0000000e 1568123937.6,1
TIME 0000000e 1568123938.6,1
TIME 0000000e 1568123939.6,1
TIME 0000000e 1568123940.6,1
TIME 0000000e 1568123941.6,1
TIME 0000000e 1568123942.6,1
TIME 0000000e 1568123943.6,1
TIME 0000000e 1568123944.6,1
TIME 0000000e 1568123945.6,1
TIME 0000000e 1568123946.6,1
TIME 0000000e 1568123947.6,1
TIME 0000000e 1568123948.6,1
TIME 0000000e 1568123949.6,1
TIME 0000000e 1568123950.6,1
TIME 0000000e 1568123951.6,1
TIME 0000000e 1568123952.6,1
TIME 0000000e 1568123953.6,1
TIME 0000000e 1568123954.6,1
TIME 0000000e 1568123955.6,1
TIME 0000000e 1568123956.6,1
TIME 0000000e 1568123957.6,1
TIME 0000000e 1568123958.6,1
TIME 0000000e 1568123959.6,1
TIME 0000000e 1568123960.6,1
TIME 0000000e 1568123961.6,1
TIME 0000000e 1568123962.6,1
TIME 0000000e 1568123963.6,1
TIME 0000000e 1568123964.6,1
TIME 0000000e 1568123965.6,1
TIME 0000000e 1568123966.6,1
TIME 0000000e 1568123967.6,1
TIME 0000000e 1568123968.6,1
TIME 0000000e 1568123969.6,1
TIME 0000000e 1568123970.6,1
TIME 0000000e 1568123971.6,1
TIME 0000000e 1568123972.6,1
TIME 0000000e 1568123973.6,1
TIME 0000000e 1568123974.6,1
TIME 0000000e 1568123975.6,1
TIME 0000000e 1568123976.6,1
TIME 0000000e 1568123977.6,1
TIME 0000000e 1568123978.6,1
TIME 0000000e 1568123979.6,1
TIME 0000000e 1568123980.6,1
TIME 0000000e 1568123981.6,1
TIME 0000000e 1568123982.6,1
TIME 0000000e 1568123983.6,1
TIME 0000000e 1568123984.6,1
TIME 0000000e 1568123985.6,1
TIME 0000000e 1568123986.6,1
TIME 0000000e 1568123987.6,1
TIME 0000000e 1568123988.6,1
TIME 0000000e 1568123989.6,1
TIME 0000000e 1568123990.6,1
TIME 0000000e 1568123991.6,1
TIME 0000000e 1568123992.6,1
TIME 0000000e 1568123993.6,1
TIME 0000000e 1568123994.6,1
TIME 0000000e 1568123995.6,1
TIME 0000000e 1568123996.6,1
TIME 0000000e 1568123997.6,1
TIME 0000000e 1568123998.6,1
TIME 0000000e 1568123999.6,1
TIME 0000000e 1568124000.6,1
TIME 0000000e 1568124001.6,1
TIME 0000000e 1568124002.6,1
TIME 0000000e 1568124003.6,1
TIME 0000000e 1568124004.6,1
TIME 0000000e 1568124005.6,1
TIME 0000000e 1568124006.6,1
TIME 0000000e 1568124007.6,1
TIME 0000000e 1568124008.6,1
TIME 0000000e 1568124009.6,1
TIME 0000000e 1568124010.6,1
TIME 0000000e 1568124011.6,1
TIME 0000000e 1568124012.6,1
TIME 0000000e 1568124013.6,1
TIME 0000000e 1568124014.6,1
TIME 0000000e 1568124015.6,1
TIME 0000000e 1568124016.6,1
TIME 0000000e 1568124017.6,1
TIME 0000000e 1568124018.6,1
TIME 0000000e 1568124019.6,1
TIME 0000000e 1568124020.6,1
TIME 0000000e 1568124021.6,1
TIME 0000000e 1568124022.6,1
TIME 0000000e 1568124023.6,1
TIME 0000000e 1568124024.6,1
TIME 0000000e 1568124025.6,1
TIME 0000000e 1568124026.6,1
TIME 0000000e 1568124027.6,1
TIME 0000000e 1568124028.6,1
TIME 0000000e 1568124029.6,1
TIME 0000000e 1568124030.6,1
TIME 0000000e 1568124031.6,1
TIME 0000000e 1568124032.6,1
TIME 0000000e 1568124033.6,1
TIME 0000000e 1568124034.6,1
TIME 0000000e 1568124035.6,1
TIME 0000000e 1568124036.6,1
TIME 0000000e 1568124037.6,1
TIME 0000000e 1568124038.6,1
TIME 0000000e 1568124039.6,1
TIME 0000000e 1568124040.6,1
TIME 0000000e 1568124041.6,1
TIME 0000000e 1568124042.6,1
TIME 0000000e 1568124043.6,1
TIME 0000000e 1568124044.6,1
TIME 0000000e 1568124045.6,1
TIME 0000000e 1568124046.6,1
TIME 0000000e 1568124047.6,1
TIME 0000000e 1568124048.6,1
TIME 0000000e 1568124049.6,1
TIME 0000000e 1568124050.6,1
TIME 0000000e 1568124051.6,1
TIME 0000000e 1568124052.6,1
TIME 0000000e 1568124053.6,1
TIME 0000000e 1568124054.6,1
TIME 0000000e 1568124055.6,1
TIME 0000000e 1568124056.6,1
TIME 0000000e 1568124057.6,1
TIME 0000000e 1568124058.6,1
TIME 0000000e 1568124059.6,1
TIME 0000000e 1568124060.6,1
TIME 0000000e 1568124061.6,1
TIME 0000000e 1568124062.6,1
TIME 0000000e 1568124063.6,1
TIME 0000000e 1568124064.6,1
TIME 0000000e 1568124065.6,1
TIME 0000000e 1568124066.6,1
TIME 0000000e 1568124067.6,1
TIME 0000000e 1568124068.6,1
TIME 0000000e 1568124069.6,1
TIME 0000000e 1568124070.6,1
TIME 0000000e 1568124071.6,1
TIME 0000000e 1568124072.6,1
TIME 0000000e 1568124073.6,1
TIME 0000000e 1568124074.6,1
TIME 0000000e 1568124075.6,1
TIME 0000000e 1568124076.6,1
TIME 0000000e 1568124077.6,1
TIME 0000000e 1568124078.6,1
TIME 0000000e 1568124079.6,1
TIME 0000000e 1568124080.6,1
TIME 0000000e 1568124081.6,1
TIME 0000000e 1568124082.6,1
TIME 0000000e 1568124083.6,1
TIME 0000000e 1568124084.6,1
TIME 0000000e 1568124085.6,1
TIME 0000000e 1568124086.6,1
TIME 0000000e 1568124087.6,1
TIME 0000000e 1568124088.6,1
TIME 0000000e 1568124089.6,1
TIME 0000000e 1568124090.6,1
TIME 0000000e 1568124091.6,1
TIME 0000000e 1568124092.6,1
TIME 0000000e 1568124093.6,1
TIME 0000000e 1568124094.6,1
TIME 0000000e 1568124095.6,1
TIME 0000000e 1568124096.6,1
TIME 0000000e 1568124097.6,1
TIME 0000000e 1568124098.6,1
TIME 0000000e 1568124099.6,1
TIME 0000000e 1568124100.6,1
TIME 0000000e 1568124101.6,1
TIME 0000000e 1568124102.6,1
TIME 0000000e 1568124103.6,1
TIME 0000000e 1568124104.6,1
TIME 0000000e 1568124105.6,1
TIME 0000000e 1568124106.6,1
TIME 0000000e 1568124107.6,1
TIME 0000000e 1568124108.6,1
TIME 0000000e 1568124109.6,1
TIME 0000000e 1568124110.6,1
TIME 0000000e 1568124111.6,1
TIME 0000000e 1568124112.6,1
TIME 0000000e 1568124113.6,1
TIME 0000000e 1568124114.6,1
TIME 0000000e 1568124115.6,1
TIME 0000000e 1568124116.6,1
TIME 0000000e 1568124117.6,1
TIME 0000000e 1568124118.6,1
TIME 0000000e 1568124119.6,1
TIME 0000000e 1568124120.6,1
TIME 0000000e 1568124121.6,1
TIME 0000000e 1568124122.6,1
TIME 0000000e 1568124123.6,1
TIME 0000000e 1568124124.6,1
TIME 0000000e 1568124125.6,1
TIME 0000000e 1568124126.6,1
TIME 0000000e 1568124127.6,1
TIME 0000000e 1568124128.6,1
TIME 0000000e 1568124129.6,1
TIME 0000000e 1568124130.6,1
TIME 0000000e 1568124131.6,1
TIME 0000000e 1568124132.6,1
TIME 0000000e 1568124133.6,1
TIME 0000000e 1568124134.6,1
TIME 0000000e 1568124135.6,1
TIME 0000000e 1568124136.6,1
TIME 0000000e 1568124137.6,1
TIME 0000000e 1568124138.6,1
TIME 0000000e 1568124139.6,1
TIME 0000000e 1568124140.6,1
TIME 0000000e 1568124141.6,1
TIME 0000000e 1568124142.6,1
TIME 0000000e 1568124143.6,1
TIME 0000000e 1568124144.6,1
TIME 0000000e 1568124145.6,1
TIME 0000000e 1568124146.6,1
TIME 0000000e 1568124147.6,1
TIME 0000000e 1568124148.6,1
TIME 0000000e 1568124149.6,1
TIME 0000000e 1568124150.6,1
TIME 0000000e 1568124151.6,1
TIME 0000000e 1568124152.6,1
TIME 0000000e 1568124153.6,1
TIME 0000000e 1568124154.6,1
TIME 0000000e 1568124155.6,1
TIME 0000000e 1568124156.6,1
TIME 0000000e 1568124157.6,1
TIME 0000000e 1568124158.6,1
TIME 0000000e 1568124159.6,1
TIME 0000000e 1568124160.6,1
TIME 0000000e 1568124161.6,1
TIME 0000000e 1568124162.6,1
TIME 0000000e 1568124163.6,1
TIME 0000000e 1568124164.6,1
TIME 0000000e 1568124165.6,1
TIME 0000000e 1568124166.6,1
TIME 0000000e 1568124167.6,1
