VERS 00000001 5
HEAD 0000131e <?xml version="1.0"?>
<?xml-stylesheet type="text/xsl" href="/resources/transform.xslt"?><header><componentName>correlator</componentName><version>10.5.0.0.357639</version><build>rel/10.5.0.x@357639</build><buildPlatform>amd64-win</buildPlatform><platform>Windows 10 Enterprise</platform><cputype>GenuineIntel family 6 model 14 stepping 3 Intel(R) Core(TM) i7-6600U CPU @ 2.60GHz</cputype><cpus name="cpus">4.00</cpus><javaEnabled>true</javaEnabled><replayLogMode>inputLog</replayLogMode><args><arg>C:\dev\apama_win_full_latest\Apama\bin\correlator.exe</arg><arg>--config</arg><arg>C:\Users\y508970\workspace105\CoffeeFactoryDataSimulator\config\CorrelatorConfig.yaml</arg><arg>--port</arg><arg>15904</arg><arg>--loglevel</arg><arg>INFO</arg><arg>--name</arg><arg>Apama Designer Correlator for CoffeeFactoryDataSimulator(CoffeeFactoryDataSimulator:Correlator2)</arg><arg>-j</arg><arg>--inputLog</arg><arg>logs/Correlator2_${START_TIME}_${ID}.input.log</arg></args><environment><variable>ALLUSERSPROFILE=C:\ProgramData</variable><variable>APAMA_HOME=C:\dev\apama_win_full_latest\Apama</variable><variable>APAMA_WORK=C:\Users\Public\SoftwareAG\ApamaWork_10.5</variable><variable>APPDATA=C:\Users\y508970\AppData\Roaming</variable><variable>COMMONPROGRAMFILES=C:\Program Files\Common Files</variable><variable>COMMONPROGRAMFILES(X86)=C:\Program Files (x86)\Common Files</variable><variable>COMMONPROGRAMW6432=C:\Program Files\Common Files</variable><variable>COMPUTERNAME=SAG-98V9PF2</variable><variable>COMSPEC=C:\Windows\system32\cmd.exe</variable><variable>DEFLOGDIR=C:\ProgramData\McAfee\Endpoint Security\Logs</variable><variable>DRIVERDATA=C:\Windows\System32\Drivers\DriverData</variable><variable>EMPIRUMSERVER=cukuni02.eur.ad.sag</variable><variable>EMPIRUMSERVICEPARTITION=0</variable><variable>EMPSRVLONG=cukuni02.eur.ad.sag</variable><variable>HOMEDRIVE=C:</variable><variable>HOMEPATH=\Users\y508970</variable><variable>LOCALAPPDATA=C:\Users\y508970\AppData\Local</variable><variable>LOGONSERVER=\\CUKDC85</variable><variable>NUMBER_OF_PROCESSORS=4</variable><variable>ONEDRIVE=C:\Users\y508970\OneDrive - Software AG</variable><variable>ONEDRIVECOMMERCIAL=C:\Users\y508970\OneDrive - Software AG</variable><variable>OS=Windows_NT</variable><variable>PATH=C:\dev\apama_win_full_latest\Apama\..\jvm\jvm\jre\bin\server;C:\dev\apama_win_full_latest\Apama\..\jvm\jvm\jre\bin;C:\dev\apama_win_full_latest\Apama\bin;C:\dev\apama_win_full_latest\Apama\..\common\security\openssl\bin;C:\Users\Public\SoftwareAG\ApamaWork_10.5\lib;C:\dev\apama_win_full_latest\Apama\..\jvm\jvm\jre\bin;C:\dev\apama_win_full_latest\Apama\..\jvm\jvm\jre\bin\server;C:\dev\apama_win_full_latest\Apama\..\UniversalMessaging\cplus\lib\x86_64;C:\dev\apama_win_full_latest\Apama\bin;C:\Windows\system32;C:\Windows;C:\Windows\System32\Wbem;C:\Windows\System32\WindowsPowerShell\v1.0\;C:\Windows\System32\OpenSSH\;C:\Program Files\Intel\WiFi\bin\;C:\Program Files\Common Files\Intel\WirelessCommon\;C:\Program Files (x86)\Intel\Intel(R) Management Engine Components\DAL;C:\Program Files\Intel\Intel(R) Management Engine Components\DAL;C:\Program Files\PuTTY\;C:\Program Files\SlikSvn\bin;C:\Program Files\dotnet\;C:\Program Files\Microsoft SQL Server\130\Tools\Binn\;C:\Program Files\TortoiseSVN\bin;C:\Program Files\TortoiseGit\bin;C:\Users\y508970\AppData\Local\Microsoft\WindowsApps;C:\Users\y508970\AppData\Local\Programs\Git\cmd;C:\Users\y508970\AppData\Local\GitHubDesktop\bin</variable><variable>PATHEXT=.COM;.EXE;.BAT;.CMD;.VBS;.VBE;.JS;.JSE;.WSF;.WSH;.MSC</variable><variable>PROCESSOR_ARCHITECTURE=AMD64</variable><variable>PROCESSOR_IDENTIFIER=Intel64 Family 6 Model 78 Stepping 3, GenuineIntel</variable><variable>PROCESSOR_LEVEL=6</variable><variable>PROCESSOR_REVISION=4e03</variable><variable>PROGRAMDATA=C:\ProgramData</variable><variable>PROGRAMFILES=C:\Program Files</variable><variable>PROGRAMFILES(X86)=C:\Program Files (x86)</variable><variable>PROGRAMW6432=C:\Program Files</variable><variable>PROMPT=$P$G</variable><variable>PSMODULEPATH=C:\Program Files\WindowsPowerShell\Modules;C:\Windows\system32\WindowsPowerShell\v1.0\Modules;C:\Program Files\Barracuda\Network Access Client\Modules</variable><variable>PUBLIC=C:\Users\Public</variable><variable>SESSIONNAME=Console</variable><variable>SSL_CERT_FILE=C:\dev\apama_win_full_latest\Apama\..\common\security\openssl\cert.pem</variable><variable>SYSTEMDRIVE=C:</variable><variable>SYSTEMROOT=C:\Windows</variable><variable>TEMP=C:\Users\y508970\AppData\Local\Temp</variable><variable>TMP=C:\Users\y508970\AppData\Local\Temp</variable><variable>USERDNSDOMAIN=EUR.AD.SAG</variable><variable>USERDOMAIN=EUR</variable><variable>USERDOMAIN_ROAMINGPROFILE=EUR</variable><variable>USERNAME=y508970</variable><variable>USERPROFILE=C:\Users\y508970</variable><variable>WINDIR=C:\Windows</variable></environment><version>10.5.0.0.357639</version></header>
YAML 000005c5 ###############################################################################
# $Copyright (c) 2016 Software AG, Darmstadt, Germany and/or Software AG USA Inc., Reston, VA, USA, and/or its subsidiaries and/or its affiliates and/or their licensors.$
# Use, reproduction, transfer, publication or disclosure is prohibited except as specifically provided for in your License Agreement with Software AG
###############################################################################

#To set the default log file and level for an EPL package, monitor, or event, specify
# logging details in the eplLogging section of the YAML configuration file.
#For example:
#eplLogging:
#  com.myCompany.Client:
#    file: apama/Client.log
#    level: DEBUG
#  com.myCompany.Internal: { level: ERROR }

engineConnect:
    - sourceHost: localhost
      sourcePort: 15903

      channels:
        - roastSimulatorChannel
        - extractorSimulatorChannel
        - freezeSimulatorChannel
        - freezeDryerSimulatorChannel

      mode: parallel
      disconnectIfSlow: true

#See the information on setting log files and log levels in a YAML configuration file in the documentation for more
# information about the supported options.
#To enable use of this file when you launch this project from Designer, edit the project's run/launch configuration,
#open the correlator, and tick the "Configuration" checkbox next to the textbox that names this .yaml file.
 00000055 C:\Users\y508970\workspace105\CoffeeFactoryDataSimulator\config\CorrelatorConfig.yaml
RAND 00000009 532422843
TIME 00000010 1568195488.009,1
CONN 0000003c 6735348321910835552:6735629809772448096 from 127.0.0.1:58182
CONN 0000003c 2280192489005842432:2286749396610711552 from 127.0.0.1:58179
TIME 0000000e 1568195489.4,1
MONF 0000145f 
/** This event consists of events full of constants which are used in the RoastDrum.mon file */

event BeanColor{
	constant integer VERY_LIGHT := 90;
	constant integer LIGHT := 80;
	constant integer YELLOW := 70;
	constant integer BROWN := 60;
	constant integer VERY_BROWN := 40;
	constant integer BLACK := 20;
}

event AlertType{
	constant integer IMMINENT_FIRE := 1;
	constant integer FIRST_CRACK := 2;
	constant integer BROWN_STAGE := 3;
	constant integer FULL_CITY := 4;
	constant integer VIENA_COFFEE := 5;
	constant integer FULL_FRENCH := 6;
}

event BeanColorVolt{
	constant float MAXIMUM := 100.0; // = 10Volt DC -> green bean;
	constant float MINIMUM := 10.0; // = 1Volt DC -> extremely dark black bean;
}

event BeanTemp{
	// ALL values below are temperatures in celsius.
	//The names of the constants represent the color of the beans at the specific temperatures;
	constant float PALE := 131.0;
	constant integer LIGHT_BROWN := 198;
	constant integer MEDIUM_LIGHT_BROWN := 207;
	constant integer FULL_MEDIUM := 218;
	constant integer MEDIUM_DARK_BROWN := 223;
	constant integer DARK_BROWN := 229;
	constant integer VERY_DARK := 243;
	
}

event FreezerTemp{
	constant float RANDOM_FLUCTUATION_NUMBER := 1.5;
}

event FreezerDryer{
	constant float RANDOM_FLUCTUATION_NUMBER := 1.9;
	constant float MINIMUM_MOISTURE := 0.0;
}

event UserStatus{
	//The values represent the names of the queries that are passed to Prometheus
	//from which Grafana request them and uses their data;
	//Variables below are used in RoastDrum.mon
	constant string DRUM := "drum";
	constant string BEAN_COLOR := "beanColor";
	constant string BEAN_ILLUSTRATOR := "beanIllustrator";
	constant string ALERT := "alert";
	
	//Variables below are used in Extractor.mon
	constant string CAFFEINE := "caffeine";
	constant string VOLATILE_OILS := "volatileOils";
	constant string ORGANIC_ACIDS := "organicAcids";
	constant string EXTRACTOR_TEMP := "extractorTemp";
	constant string COFFEE_TO_WATER_RATIO := "coffeeToWater";
	
	constant string FREEZER_TEMP := "freezerTemp";
	
	constant string MOISTURE := "moisture";
	constant string VACUUM := "vacuum";
	constant string FREEZER_DRYER_TEMP := "freezerDryerTemp";
}

event Channel{
	constant string ROAST := "roastChannel";
	constant string EXTRACTOR := "extractorChannel";
	constant string FREEZE := "freezeChannel";
	constant string FREEZE_DRYER := "freezeDryerChannel";
	
	constant string ROAST_SIMULATOR := "roastSimulatorChannel";
	constant string EXTRACTOR_SIMULATOR := "extractorSimulatorChannel";
    constant string FREEZER_SIMULATOR := "freezeSimulatorChannel";
    constant string FREEZE_DRYER_SIMULATOR := "freezeDryerSimulatorChannel";

}

event Caffeine{
	// default values used to increase/decrease the height/length of the caffeine graph;
	constant float GRAPH_HEIGHT := 7.7;
	constant float GRAPH_LENGTH := 0.188;
}

event VolatileOils{
	// default values used to increase/decrease the height/length of the volatile oils graph;
	constant float GRAPH_HEIGHT := 5.19;
	constant float GRAPH_LENGTH := 0.0415;
}

event OrganicAcids{
	// default values used to increase/decrease the height/length of the organic graph;
	constant float GRAPH_HEIGHT := 3.11;
	constant float GRAPH_LENGTH := 0.0197;
}

event Math{
	constant float CUBED := 3.0;
	constant float PLANCK_FORMULA_SUBTRACTOR := -1.0; // bl
}

event Message{
	constant string LOADED_ROAST_SIMULATOR := "Loaded monitor RoastSimulator";
	constant string LOADED_EXTRACT_SIMULATOR := "Loaded monitor ExtractorSimulator";
	constant string LOADED_FREEZER_SIMULATOR := "Loaded monitor FreezerSimulator";
	constant string LOADED_FREEZE_DRYER_SIMULATOR := "Loaded monitor FreezerDryerSimulator";
}

event Time{
	constant float ADD_SECOND := 1.0;
}

event ExtractionBounds{ // bounds within the graph
	constant float MAXIMUM := 110.0;
	constant float MINIMUM := 0.0;
}

event Temperature{
	constant float PREHEAT_NUMBER := 13.1; //A random number; The random number has to be lower than 20 and higher than 10;
	constant float DRUM_MINIMUM := 0.0;
	constant float IMMINENT_FIRE := 258.0; // temperature at which the beans will start going on fire;
	
	constant float EXTRACTOR_INITIAL := 140.0; // random number between 130 and 150;
	//Has to differ from the starting drum temp in RoastDrum because it looks better on Grafana;
	constant float EXTRACTOR_PREHEAT := 12.1;  //A random number; The random number has to be lower than 20 and higher than 10;
	
	constant float FREEZER_MAX := -60.0;
	constant float FREEZER_MIN := -20.0;
}

event ColorScheme{
	constant integer SIZE := 50; // the size of the color scheme graph on Grafana that is displaying the current color of the beans;
}

event Divider{
	constant integer BY_HALF := 2;
}

event BeanTracker{
	constant float COLOR_CHANGER := 0.9; // 
	constant float COLOR_GATE_ENTRY := 0.4; // representing the percent (e.g. 0.4 = 40%);
}

event BeanRandom{
	constant float TEMP_INCREMENTER := 1.8; // maximum random value;
	constant float GATE_BOUND := 1.0; // representing the maximum percent value(e.g. 1.0 = 100%, 0.9 = 90%);
}
 00000064 C:\Users\y508970\workspace105\CoffeeFactoryDataSimulator\eventdefinitions\CoffeeFactoryConstants.mon
MONF 00000cec 
/** This monitor is responsible for ...  */

event CaffeineEvent{
	float currentCaffeine;
}

event VolatileOilsEvent{
	float currentVolatileOils;
}

event OrganicAcidsEvent{
	float currentOrganicAcids;
}

event ExtractorTemperature{
	float currentTemperature;
}

monitor ExtractorSimulator {

	float currentCaffeine := 1.0;
	float currentVolatileOils := 3.0;
	float currentOrganicAcids := 8.0;
	float currentTemp := preheatExtractor();
	float currentCoffeeToWaterRatio := 0.0;
	
	boolean highExtractionTemp := false; // used as a gate to decrease the temp;
	boolean lowExtractionTemp := true; // used as a gate to increase the temp;
	
	float caffeineTimeCounterSecs := 0.0;
	float oilsTimeCounterSecs := 0.0;
	float acidsTimeCounterSecs := 0.0;
	
	//Side value => Amount of compound (Unit) - A
	
	action onload() {
		log Message.LOADED_EXTRACT_SIMULATOR at INFO;
		initialize();
	}

	action initialize(){
		implementExtractorTemp();
		extractAll();
	}

	action extractAll(){
		extractCaffeine();
		extractVolatileOils();
		extractOrganicAcids();
	}

	/** 
	...
	*/
	action extractCaffeine(){
		listener listen := on all wait (1.0){
			currentCaffeine := blackBodyFormula(caffeineTimeCounterSecs, Caffeine.GRAPH_HEIGHT, Caffeine.GRAPH_LENGTH);  
			send CaffeineEvent(currentCaffeine) to Channel.EXTRACTOR; 
			caffeineTimeCounterSecs := caffeineTimeCounterSecs + Time.ADD_SECOND;
		}
	}

	/** 
	...
	*/
	action extractVolatileOils(){
		listener listen := on all wait (1.0){		
			currentVolatileOils := blackBodyFormula(oilsTimeCounterSecs, VolatileOils.GRAPH_HEIGHT, VolatileOils.GRAPH_LENGTH);	
			send VolatileOilsEvent(currentVolatileOils) to Channel.EXTRACTOR; 
			oilsTimeCounterSecs := oilsTimeCounterSecs + Time.ADD_SECOND;
		}
	}
	
	/** 
	...
	*/	
	action extractOrganicAcids(){
		listener listen := on all wait (1.0){
			currentOrganicAcids := blackBodyFormula(acidsTimeCounterSecs, OrganicAcids.GRAPH_HEIGHT, OrganicAcids.GRAPH_LENGTH); 
			send OrganicAcidsEvent(currentOrganicAcids) to Channel.EXTRACTOR; 
			acidsTimeCounterSecs := acidsTimeCounterSecs + Time.ADD_SECOND;
		}
	}
	
	/** 
		Increases/decreases the temperature in the extractor drum;
		
	*/
	action implementExtractorTemp(){
		listener listen := on all wait (2.0){
			float randomTempIncrementor := (2.0).rand(); // TODO FIX MAGIC NUMBER;
			currentTemp := currentTemp + randomTempIncrementor;
			send ExtractorTemperature(currentTemp) to Channel.EXTRACTOR; 
		}
	}
	
	/** 
	@param time = the time that has passed in seconds;
	@param height = increase value for higher function and decrease for lower; 7.7 is a random default value;
	@param length = increase to shrink function, decrease to expand function; 0.188 is a random default value;
	@return Max Planck's formula for Black-body radition
	*/
	action blackBodyFormula(float time, float height, float length) returns float{
		return (height * (length * time).pow(Math.CUBED)) / ( (float.E).pow(length * time) - Math.PLANCK_FORMULA_SUBTRACTOR);
	}
	
	/** 
	...
	*/
	action updateCoffeeToWaterRatio(){	
		//send ... to ...
	}
	
	action preheatExtractor() returns float{
		return (Temperature.EXTRACTOR_PREHEAT).rand() + Temperature.EXTRACTOR_INITIAL;
	}
	
}
 00000058 C:\Users\y508970\workspace105\CoffeeFactoryDataSimulator\monitors\ExtractorSimulator.mon
TIME 0000000e 1568195489.5,1
MONF 00000854 
/** This monitor is responsible for ...  */

event FreezerDryerMoisture{
	float currentMoisture;
}

event FreezerDryerTemp{
	float currentTemp;
}

event FreezerDryerVacuum{
	float currentVacuum;
}

event Alert{
	string anAlert;
}


monitor FreezeDryerSimulator {

	float currentMoisture := 100.0;
	float currentTemp := 60.0;
	float currentVacuum := 150.0;
				
	action onload() {
		listenning();
		initialize();
	}

	action initialize(){
		log Message.LOADED_FREEZE_DRYER_SIMULATOR at INFO;
		moistureEvaporating();
		implementTubeTemperature();
		implementTubeVacuum();
	}
		
	action moistureEvaporating(){
		listener listen := on all wait (2.0){
			float random := (FreezerDryer.RANDOM_FLUCTUATION_NUMBER).rand();
			currentMoisture := currentMoisture - random;
			send FreezerDryerMoisture(currentMoisture) to Channel.FREEZE_DRYER;
		}
	}
	
	action implementTubeTemperature(){
		listener listen := on all wait (3.0){
			float random := (FreezerDryer.RANDOM_FLUCTUATION_NUMBER).rand();
			float tempGate := (1.0).rand();
			currentTemp := implementFluctuation(tempGate, currentTemp, random);
			send FreezerDryerTemp(currentTemp) to Channel.FREEZE_DRYER;
		}
	}
	
	action implementTubeVacuum(){
		listener listen := on all wait (2.0){
			float random := (1.0).rand(); 
			float vacuumGate := (1.0).rand();
			//TODO change gate to be e.g. 0.4 and the random generator to generate a number
			// between 0.0 and 1.0, see colorTrack()
			currentVacuum := implementFluctuation(vacuumGate, currentVacuum, random);
			send FreezerDryerVacuum(currentVacuum) to Channel.FREEZE_DRYER;
		}
	}
	
	action implementFluctuation(float gate, float currentValue, float randomNumber) returns float{
		if gate <= 0.5 {
			currentValue := currentValue - randomNumber;
			//gate := false;
		}else{
			currentValue := currentValue + randomNumber;
			//gate := true;
		}
		
		return currentValue;
	}
	
	action listenning(){
		monitor.subscribe(Channel.FREEZE_DRYER_SIMULATOR);
		on all Alert() as a{
			log "ALERT === ===== === " + a.anAlert at INFO;
		}
	}
	
	
}
 0000005a C:\Users\y508970\workspace105\CoffeeFactoryDataSimulator\monitors\FreezeDryerSimulator.mon
MONF 0000043f 
/** This monitor is responsible for ...  */

event FreezerTemperature{
	float currentFreezerTemp;
}

monitor FreezerSimulator {
	
	float currentFreezerTemp := -50.0; // default freezer temperature;
	boolean flag := false; //When using the random variable we either decrease or
	//increase the current freezer temperature, using this variable we set the turns;

	action onload() {
		log Message.LOADED_FREEZER_SIMULATOR at INFO;
		freeze();
	}
	
	action freeze(){
		listener listen := on all wait (3.0){
			float randomTemp := getRandomTemp();	
			currentFreezerTemp := (currentFreezerTemp + randomTemp);
			send FreezerTemperature(currentFreezerTemp) to Channel.FREEZE;
			log "Simulation Freezer temp: " + currentFreezerTemp.toString() at INFO;

		}
	}
	
	action getRandomTemp() returns float{
		float randomTemp := (FreezerTemp.RANDOM_FLUCTUATION_NUMBER).rand();
		// below = take turns adding -> subtracting random values; 
		if flag {
			randomTemp := -randomTemp;
			flag := false;
		}else{
			flag := true;
		}
		return randomTemp;
	}
	
}
 00000056 C:\Users\y508970\workspace105\CoffeeFactoryDataSimulator\monitors\FreezerSimulator.mon
MONF 00000ae2 
event ColorTrack{
	float currentBeanVolt;
}

event DrumTemperature{
	float currentDrumTemperature;
}

/** This monitor is responsible for ...  */

monitor RoastDrumSimulator {

	integer beanIllustrator := 1; //parses the number so the program can display the actual color of the bean in a range from 1 to 100; Where 1 is green and very black is 100;
	integer currentBeanTemp := 0; // average temp;

	float currentDrumTemp := preheatDrum(); // default temp in drum before roasting is just below 200, e.g. 190;
	float currentBeanVolt := BeanColorVolt.MAXIMUM; 
	
	boolean highRoastTemp := false; // used as a gate to decrease the temp;
	boolean lowRoastTemp := true; // used as a gate to increase the temp;
	
	action onload() {
		log Message.LOADED_ROAST_SIMULATOR at INFO;
		initialize();
	}

	action initialize(){
			heatDrum();
			colorTrack();
	}
	
	/** 
	@return ...
	*/
	action preheatDrum() returns float{
		return (Temperature.PREHEAT_NUMBER).rand() + BeanTemp.PALE;
	}
	
	/** 
		...
	*/
	action heatDrum(){		
		listener listen := on all wait (2.0){
			float randomTemp := (BeanRandom.TEMP_INCREMENTER).rand();				
			currentDrumTemp := (currentDrumTemp + randomTemp);
			send DrumTemperature(currentDrumTemp) to Channel.ROAST;
		}
	}	
	
	/** 
		....
	*/
	action colorTrack(){
		listener listen := on all wait (1.0){
			float randomVoltIncrease := (BeanTracker.COLOR_CHANGER).rand(); // the beans spin while in the drum, therefore their temperature might differ slightly. Plus, making the graph more realistic;
			float gate := (BeanRandom.GATE_BOUND).rand();
			integer beanColorIllustrator := getBeanIllustrator(currentBeanVolt);

			implementBeanVolt(gate, randomVoltIncrease);
			send ColorTrack(currentBeanVolt) to Channel.ROAST;
		}
	}
	
	/** 
	@param gate ...
	@param randomVoltIncrease ...
	*/
	action implementBeanVolt(float gate, float randomVoltIncrease){
		if gate <= BeanTracker.COLOR_GATE_ENTRY {
			currentBeanVolt := currentBeanVolt + randomVoltIncrease;
		}else{
			currentBeanVolt := currentBeanVolt - BeanTracker.COLOR_CHANGER; // 0-100 Volts DC; 280 maximum temp in drum -> 280/100 = 2.8; Therefore, 2.8 decrease per degree celsius;
		}
	}
	
	/** 
	@param beanVolt ...
	@return ....
		formula: the color scheme graph contains half the range the beanvolt has
		(i.e. BeanVolt starts at 100 and goes down to 0, colorScheme starts at 0 and goes up to 50).
		Hence, get half of bean volt and remove 50 since the colorScheme operates in the 0-50 range;
	*/
	action getBeanIllustrator(float beanVolt) returns integer {
		return (getHalf(beanVolt) - ColorScheme.SIZE).abs(); 
	}
	
	action getHalf(float value) returns integer{
		return value.floor() / Divider.BY_HALF;
	}
}
  00000054 C:\Users\y508970\workspace105\CoffeeFactoryDataSimulator\monitors\RoastSimulator.mon
CONN 0000003c 6735348330824780128:6736474239321557344 from 127.0.0.1:15903
DISC 0000003c 2280192489005842432:2286749396610711552 from 127.0.0.1:58179
TIME 0000000e 1568195489.6,1
TIME 0000000e 1568195490.4,1
TIME 0000000e 1568195490.5,1
TIME 0000000e 1568195491.4,1
TIME 0000000e 1568195491.5,1
TIME 0000000c 1568195492,1
EVNT 00000021 6735348330824780128 "",Alert("1")
TIME 0000000e 1568195492.4,1
TIME 0000000e 1568195492.5,1
TIME 0000000e 1568195493.4,1
TIME 0000000e 1568195493.5,1
TIME 0000000e 1568195494.4,1
TIME 0000000e 1568195494.5,1
TIME 0000000e 1568195495.4,1
TIME 0000000e 1568195495.5,1
TIME 0000000e 1568195496.4,1
TIME 0000000e 1568195496.5,1
TIME 0000000e 1568195497.4,1
TIME 0000000e 1568195497.5,1
TIME 0000000e 1568195498.4,1
TIME 0000000e 1568195498.5,1
TIME 0000000e 1568195499.4,1
TIME 0000000e 1568195499.5,1
TIME 0000000e 1568195500.4,1
TIME 0000000e 1568195500.5,1
TIME 0000000e 1568195501.4,1
TIME 0000000e 1568195501.5,1
TIME 0000000e 1568195502.4,1
TIME 0000000e 1568195502.5,1
TIME 0000000e 1568195503.4,1
TIME 0000000e 1568195503.5,1
TIME 0000000e 1568195504.4,1
TIME 0000000e 1568195504.5,1
TIME 0000000e 1568195505.4,1
TIME 0000000e 1568195505.5,1
TIME 0000000e 1568195506.4,1
TIME 0000000e 1568195506.5,1
TIME 0000000e 1568195507.4,1
TIME 0000000e 1568195507.5,1
TIME 0000000e 1568195508.4,1
TIME 0000000e 1568195508.5,1
TIME 0000000e 1568195509.4,1
TIME 0000000e 1568195509.5,1
TIME 0000000e 1568195510.4,1
TIME 0000000e 1568195510.5,1
TIME 0000000e 1568195511.4,1
TIME 0000000e 1568195511.5,1
TIME 0000000e 1568195512.4,1
TIME 0000000e 1568195512.5,1
TIME 0000000e 1568195513.4,1
TIME 0000000e 1568195513.5,1
TIME 0000000e 1568195514.4,1
TIME 0000000e 1568195514.5,1
TIME 0000000e 1568195515.4,1
TIME 0000000e 1568195515.5,1
TIME 0000000e 1568195516.4,1
TIME 0000000e 1568195516.5,1
TIME 0000000e 1568195517.4,1
TIME 0000000e 1568195517.5,1
TIME 0000000e 1568195518.4,1
TIME 0000000e 1568195518.5,1
TIME 0000000e 1568195519.4,1
TIME 0000000e 1568195519.5,1
TIME 0000000e 1568195520.4,1
TIME 0000000e 1568195520.5,1
TIME 0000000e 1568195521.4,1
TIME 0000000e 1568195521.5,1
TIME 0000000e 1568195522.4,1
TIME 0000000e 1568195522.5,1
TIME 0000000e 1568195523.4,1
TIME 0000000e 1568195523.5,1
TIME 0000000e 1568195524.4,1
TIME 0000000e 1568195524.5,1
TIME 0000000e 1568195525.4,1
TIME 0000000e 1568195525.5,1
TIME 0000000e 1568195526.4,1
TIME 0000000e 1568195526.5,1
TIME 0000000e 1568195527.4,1
TIME 0000000e 1568195527.5,1
TIME 0000000e 1568195528.4,1
TIME 0000000e 1568195528.5,1
TIME 0000000e 1568195529.4,1
TIME 0000000e 1568195529.5,1
TIME 0000000e 1568195530.4,1
TIME 0000000e 1568195530.5,1
TIME 0000000e 1568195531.4,1
TIME 0000000e 1568195531.5,1
TIME 0000000e 1568195532.4,1
TIME 0000000e 1568195532.5,1
TIME 0000000e 1568195533.4,1
TIME 0000000e 1568195533.5,1
TIME 0000000e 1568195534.4,1
TIME 0000000e 1568195534.5,1
TIME 0000000e 1568195535.4,1
TIME 0000000e 1568195535.5,1
TIME 0000000e 1568195536.4,1
TIME 0000000e 1568195536.5,1
TIME 0000000e 1568195537.4,1
TIME 0000000e 1568195537.5,1
TIME 0000000e 1568195538.4,1
TIME 0000000e 1568195538.5,1
TIME 0000000e 1568195539.4,1
TIME 0000000e 1568195539.5,1
TIME 0000000e 1568195540.4,1
TIME 0000000e 1568195540.5,1
TIME 0000000e 1568195541.4,1
TIME 0000000e 1568195541.5,1
TIME 0000000e 1568195542.4,1
TIME 0000000e 1568195542.5,1
TIME 0000000e 1568195543.4,1
TIME 0000000e 1568195543.5,1
TIME 0000000e 1568195544.4,1
TIME 0000000e 1568195544.5,1
TIME 0000000e 1568195545.4,1
TIME 0000000e 1568195545.5,1
TIME 0000000e 1568195546.4,1
TIME 0000000e 1568195546.5,1
TIME 0000000e 1568195547.4,1
TIME 0000000e 1568195547.5,1
TIME 0000000e 1568195548.4,1
TIME 0000000e 1568195548.5,1
TIME 0000000e 1568195549.4,1
TIME 0000000e 1568195549.5,1
TIME 0000000e 1568195550.4,1
TIME 0000000e 1568195550.5,1
TIME 0000000e 1568195551.4,1
TIME 0000000e 1568195551.5,1
TIME 0000000e 1568195552.4,1
TIME 0000000e 1568195552.5,1
TIME 0000000e 1568195553.4,1
TIME 0000000e 1568195553.5,1
TIME 0000000e 1568195554.4,1
TIME 0000000e 1568195554.5,1
TIME 0000000e 1568195555.4,1
TIME 0000000e 1568195555.5,1
TIME 0000000e 1568195556.4,1
TIME 0000000e 1568195556.5,1
TIME 0000000e 1568195557.4,1
TIME 0000000e 1568195557.5,1
TIME 0000000e 1568195558.4,1
TIME 0000000e 1568195558.5,1
TIME 0000000e 1568195559.4,1
TIME 0000000e 1568195559.5,1
TIME 0000000e 1568195560.4,1
TIME 0000000e 1568195560.5,1
TIME 0000000e 1568195561.4,1
TIME 0000000e 1568195561.5,1
TIME 0000000e 1568195562.4,1
TIME 0000000e 1568195562.5,1
TIME 0000000e 1568195563.4,1
TIME 0000000e 1568195563.5,1
TIME 0000000e 1568195564.4,1
TIME 0000000e 1568195564.5,1
TIME 0000000e 1568195565.4,1
TIME 0000000e 1568195565.5,1
TIME 0000000e 1568195566.4,1
TIME 0000000e 1568195566.5,1
TIME 0000000e 1568195567.4,1
TIME 0000000e 1568195567.5,1
TIME 0000000e 1568195568.4,1
TIME 0000000e 1568195568.5,1
TIME 0000000e 1568195569.4,1
TIME 0000000e 1568195569.5,1
TIME 0000000e 1568195570.4,1
TIME 0000000e 1568195570.5,1
TIME 0000000e 1568195571.4,1
TIME 0000000e 1568195571.5,1
TIME 0000000e 1568195572.4,1
TIME 0000000e 1568195572.5,1
TIME 0000000e 1568195573.4,1
TIME 0000000e 1568195573.5,1
TIME 0000000e 1568195574.4,1
TIME 0000000e 1568195574.5,1
TIME 0000000e 1568195575.4,1
TIME 0000000e 1568195575.5,1
TIME 0000000e 1568195576.4,1
TIME 0000000e 1568195576.5,1
TIME 0000000e 1568195577.4,1
TIME 0000000e 1568195577.5,1
TIME 0000000e 1568195578.4,1
TIME 0000000e 1568195578.5,1
TIME 0000000e 1568195579.4,1
TIME 0000000e 1568195579.5,1
TIME 0000000e 1568195580.4,1
TIME 0000000e 1568195580.5,1
TIME 0000000e 1568195581.4,1
TIME 0000000e 1568195581.5,1
TIME 0000000e 1568195582.4,1
TIME 0000000e 1568195582.5,1
TIME 0000000e 1568195583.4,1
TIME 0000000e 1568195583.5,1
TIME 0000000e 1568195584.4,1
TIME 0000000e 1568195584.5,1
TIME 0000000e 1568195585.4,1
TIME 0000000e 1568195585.5,1
TIME 0000000e 1568195586.4,1
TIME 0000000e 1568195586.5,1
TIME 0000000e 1568195587.4,1
TIME 0000000e 1568195587.5,1
TIME 0000000e 1568195588.4,1
TIME 0000000e 1568195588.5,1
TIME 0000000e 1568195589.4,1
TIME 0000000e 1568195589.5,1
TIME 0000000e 1568195590.4,1
TIME 0000000e 1568195590.5,1
TIME 0000000e 1568195591.4,1
TIME 0000000e 1568195591.5,1
TIME 0000000e 1568195592.4,1
TIME 0000000e 1568195592.5,1
TIME 0000000e 1568195593.4,1
TIME 0000000e 1568195593.5,1
TIME 0000000e 1568195594.4,1
TIME 0000000e 1568195594.5,1
TIME 0000000e 1568195595.4,1
TIME 0000000e 1568195595.5,1
TIME 0000000e 1568195596.4,1
TIME 0000000e 1568195596.5,1
TIME 0000000e 1568195597.4,1
TIME 0000000e 1568195597.5,1
TIME 0000000e 1568195598.4,1
TIME 0000000e 1568195598.5,1
TIME 0000000e 1568195599.4,1
TIME 0000000e 1568195599.5,1
TIME 0000000e 1568195600.4,1
TIME 0000000e 1568195600.5,1
TIME 0000000e 1568195601.4,1
TIME 0000000e 1568195601.5,1
TIME 0000000e 1568195602.4,1
TIME 0000000e 1568195602.5,1
TIME 0000000e 1568195603.4,1
TIME 0000000e 1568195603.5,1
TIME 0000000e 1568195604.4,1
TIME 0000000e 1568195604.5,1
TIME 0000000e 1568195605.4,1
TIME 0000000e 1568195605.5,1
TIME 0000000e 1568195606.4,1
TIME 0000000e 1568195606.5,1
TIME 0000000e 1568195607.4,1
TIME 0000000e 1568195607.5,1
TIME 0000000e 1568195608.4,1
TIME 0000000e 1568195608.5,1
TIME 0000000e 1568195609.4,1
TIME 0000000e 1568195609.5,1
TIME 0000000e 1568195610.4,1
TIME 0000000e 1568195610.5,1
TIME 0000000e 1568195611.4,1
TIME 0000000e 1568195611.5,1
TIME 0000000e 1568195612.4,1
TIME 0000000e 1568195612.5,1
TIME 0000000e 1568195613.4,1
TIME 0000000e 1568195613.5,1
TIME 0000000e 1568195614.4,1
TIME 0000000e 1568195614.5,1
TIME 0000000e 1568195615.4,1
TIME 0000000e 1568195615.5,1
TIME 0000000e 1568195616.4,1
TIME 0000000e 1568195616.5,1
TIME 0000000e 1568195617.4,1
TIME 0000000e 1568195617.5,1
TIME 0000000e 1568195618.4,1
TIME 0000000e 1568195618.5,1
TIME 0000000e 1568195619.4,1
TIME 0000000e 1568195619.5,1
TIME 0000000e 1568195620.4,1
TIME 0000000e 1568195620.5,1
TIME 0000000e 1568195621.4,1
TIME 0000000e 1568195621.5,1
TIME 0000000e 1568195622.4,1
TIME 0000000e 1568195622.5,1
TIME 0000000e 1568195623.4,1
TIME 0000000e 1568195623.5,1
TIME 0000000e 1568195624.4,1
TIME 0000000e 1568195624.5,1
TIME 0000000e 1568195625.4,1
TIME 0000000e 1568195625.5,1
TIME 0000000e 1568195626.4,1
TIME 0000000e 1568195626.5,1
TIME 0000000e 1568195627.4,1
TIME 0000000e 1568195627.5,1
TIME 0000000e 1568195628.4,1
TIME 0000000e 1568195628.5,1
TIME 0000000e 1568195629.4,1
TIME 0000000e 1568195629.5,1
TIME 0000000e 1568195630.4,1
TIME 0000000e 1568195630.5,1
TIME 0000000e 1568195631.4,1
TIME 0000000e 1568195631.5,1
TIME 0000000e 1568195632.4,1
TIME 0000000e 1568195632.5,1
TIME 0000000e 1568195633.4,1
TIME 0000000e 1568195633.5,1
TIME 0000000e 1568195634.4,1
TIME 0000000e 1568195634.5,1
TIME 0000000e 1568195635.4,1
TIME 0000000e 1568195635.5,1
TIME 0000000e 1568195636.4,1
TIME 0000000e 1568195636.5,1
TIME 0000000e 1568195637.4,1
TIME 0000000e 1568195637.5,1
TIME 0000000e 1568195638.4,1
TIME 0000000e 1568195638.5,1
TIME 0000000e 1568195639.4,1
TIME 0000000e 1568195639.5,1
TIME 0000000e 1568195640.4,1
TIME 0000000e 1568195640.5,1
TIME 0000000e 1568195641.4,1
TIME 0000000e 1568195641.5,1
TIME 0000000e 1568195642.4,1
TIME 0000000e 1568195642.5,1
TIME 0000000e 1568195643.4,1
TIME 0000000e 1568195643.5,1
TIME 0000000e 1568195644.4,1
TIME 0000000e 1568195644.5,1
TIME 0000000e 1568195645.4,1
TIME 0000000e 1568195645.5,1
TIME 0000000e 1568195646.4,1
TIME 0000000e 1568195646.5,1
TIME 0000000e 1568195647.4,1
TIME 0000000e 1568195647.5,1
TIME 0000000e 1568195648.4,1
TIME 0000000e 1568195648.5,1
TIME 0000000e 1568195649.4,1
TIME 0000000e 1568195649.5,1
TIME 0000000e 1568195650.4,1
TIME 0000000e 1568195650.5,1
TIME 0000000e 1568195651.4,1
TIME 0000000e 1568195651.5,1
TIME 0000000e 1568195652.4,1
TIME 0000000e 1568195652.5,1
TIME 0000000e 1568195653.4,1
TIME 0000000e 1568195653.5,1
TIME 0000000e 1568195654.4,1
TIME 0000000e 1568195654.5,1
TIME 0000000e 1568195655.4,1
TIME 0000000e 1568195655.5,1
TIME 0000000e 1568195656.4,1
TIME 0000000e 1568195656.5,1
TIME 0000000e 1568195657.4,1
TIME 0000000e 1568195657.5,1
TIME 0000000e 1568195658.4,1
TIME 0000000e 1568195658.5,1
TIME 0000000e 1568195659.4,1
TIME 0000000e 1568195659.5,1
TIME 0000000e 1568195660.4,1
TIME 0000000e 1568195660.5,1
TIME 0000000e 1568195661.4,1
TIME 0000000e 1568195661.5,1
TIME 0000000e 1568195662.4,1
TIME 0000000e 1568195662.5,1
TIME 0000000e 1568195663.4,1
TIME 0000000e 1568195663.5,1
TIME 0000000e 1568195664.4,1
TIME 0000000e 1568195664.5,1
TIME 0000000e 1568195665.4,1
TIME 0000000e 1568195665.5,1
TIME 0000000e 1568195666.4,1
TIME 0000000e 1568195666.5,1
TIME 0000000e 1568195667.4,1
TIME 0000000e 1568195667.5,1
TIME 0000000e 1568195668.4,1
TIME 0000000e 1568195668.5,1
TIME 0000000e 1568195669.4,1
TIME 0000000e 1568195669.5,1
TIME 0000000e 1568195670.4,1
TIME 0000000e 1568195670.5,1
TIME 0000000e 1568195671.4,1
TIME 0000000e 1568195671.5,1
TIME 0000000e 1568195672.4,1
TIME 0000000e 1568195672.5,1
TIME 0000000e 1568195673.4,1
TIME 0000000e 1568195673.5,1
TIME 0000000e 1568195674.4,1
TIME 0000000e 1568195674.5,1
TIME 0000000e 1568195675.4,1
TIME 0000000e 1568195675.5,1
TIME 0000000e 1568195676.4,1
TIME 0000000e 1568195676.5,1
TIME 0000000e 1568195677.4,1
TIME 0000000e 1568195677.5,1
TIME 0000000e 1568195678.4,1
TIME 0000000e 1568195678.5,1
TIME 0000000e 1568195679.4,1
TIME 0000000e 1568195679.5,1
TIME 0000000e 1568195680.4,1
TIME 0000000e 1568195680.5,1
TIME 0000000e 1568195681.4,1
TIME 0000000e 1568195681.5,1
TIME 0000000e 1568195682.4,1
TIME 0000000e 1568195682.5,1
TIME 0000000e 1568195683.4,1
TIME 0000000e 1568195683.5,1
TIME 0000000e 1568195684.4,1
TIME 0000000e 1568195684.5,1
TIME 0000000e 1568195685.4,1
TIME 0000000e 1568195685.5,1
TIME 0000000e 1568195686.4,1
TIME 0000000e 1568195686.5,1
TIME 0000000e 1568195687.4,1
TIME 0000000e 1568195687.5,1
TIME 0000000e 1568195688.4,1
TIME 0000000e 1568195688.5,1
TIME 0000000e 1568195689.4,1
TIME 0000000e 1568195689.5,1
TIME 0000000e 1568195690.4,1
TIME 0000000e 1568195690.5,1
TIME 0000000e 1568195691.4,1
TIME 0000000e 1568195691.5,1
TIME 0000000e 1568195692.4,1
TIME 0000000e 1568195692.5,1
TIME 0000000e 1568195693.4,1
TIME 0000000e 1568195693.5,1
TIME 0000000e 1568195694.4,1
TIME 0000000e 1568195694.5,1
TIME 0000000e 1568195695.4,1
TIME 0000000e 1568195695.5,1
TIME 0000000e 1568195696.4,1
TIME 0000000e 1568195696.5,1
TIME 0000000e 1568195697.4,1
TIME 0000000e 1568195697.5,1
TIME 0000000e 1568195698.4,1
TIME 0000000e 1568195698.5,1
TIME 0000000e 1568195699.4,1
TIME 0000000e 1568195699.5,1
TIME 0000000e 1568195700.4,1
TIME 0000000e 1568195700.5,1
TIME 0000000e 1568195701.4,1
TIME 0000000e 1568195701.5,1
TIME 0000000e 1568195702.4,1
TIME 0000000e 1568195702.5,1
TIME 0000000e 1568195703.4,1
TIME 0000000e 1568195703.5,1
TIME 0000000e 1568195704.4,1
TIME 0000000e 1568195704.5,1
TIME 0000000e 1568195705.4,1
TIME 0000000e 1568195705.5,1
TIME 0000000e 1568195706.4,1
TIME 0000000e 1568195706.5,1
TIME 0000000e 1568195707.4,1
TIME 0000000e 1568195707.5,1
TIME 0000000e 1568195708.4,1
TIME 0000000e 1568195708.5,1
TIME 0000000e 1568195709.4,1
TIME 0000000e 1568195709.5,1
TIME 0000000e 1568195710.4,1
TIME 0000000e 1568195710.5,1
TIME 0000000e 1568195711.4,1
TIME 0000000e 1568195711.5,1
TIME 0000000e 1568195712.4,1
TIME 0000000e 1568195712.5,1
TIME 0000000e 1568195713.4,1
TIME 0000000e 1568195713.5,1
TIME 0000000e 1568195714.4,1
TIME 0000000e 1568195714.5,1
TIME 0000000e 1568195715.4,1
TIME 0000000e 1568195715.5,1
TIME 0000000e 1568195716.4,1
TIME 0000000e 1568195716.5,1
TIME 0000000e 1568195717.4,1
TIME 0000000e 1568195717.5,1
TIME 0000000e 1568195718.4,1
TIME 0000000e 1568195718.5,1
TIME 0000000e 1568195719.4,1
TIME 0000000e 1568195719.5,1
TIME 0000000e 1568195720.4,1
TIME 0000000e 1568195720.5,1
TIME 0000000e 1568195721.4,1
TIME 0000000e 1568195721.5,1
TIME 0000000e 1568195722.4,1
TIME 0000000e 1568195722.5,1
TIME 0000000e 1568195723.4,1
TIME 0000000e 1568195723.5,1
TIME 0000000e 1568195724.4,1
TIME 0000000e 1568195724.5,1
TIME 0000000e 1568195725.4,1
TIME 0000000e 1568195725.5,1
TIME 0000000e 1568195726.4,1
TIME 0000000e 1568195726.5,1
TIME 0000000e 1568195727.4,1
TIME 0000000e 1568195727.5,1
TIME 0000000e 1568195728.4,1
TIME 0000000e 1568195728.5,1
TIME 0000000e 1568195729.4,1
TIME 0000000e 1568195729.5,1
TIME 0000000e 1568195730.4,1
TIME 0000000e 1568195730.5,1
TIME 0000000e 1568195731.4,1
TIME 0000000e 1568195731.5,1
TIME 0000000e 1568195732.4,1
TIME 0000000e 1568195732.5,1
TIME 0000000e 1568195733.4,1
TIME 0000000e 1568195733.5,1
TIME 0000000e 1568195734.4,1
TIME 0000000e 1568195734.5,1
TIME 0000000e 1568195735.4,1
TIME 0000000e 1568195735.5,1
TIME 0000000e 1568195736.4,1
TIME 0000000e 1568195736.5,1
TIME 0000000e 1568195737.4,1
TIME 0000000e 1568195737.5,1
TIME 0000000e 1568195738.4,1
TIME 0000000e 1568195738.5,1
TIME 0000000e 1568195739.4,1
TIME 0000000e 1568195739.5,1
TIME 0000000e 1568195740.4,1
TIME 0000000e 1568195740.5,1
TIME 0000000e 1568195741.4,1
TIME 0000000e 1568195741.5,1
TIME 0000000e 1568195742.4,1
TIME 0000000e 1568195742.5,1
TIME 0000000e 1568195743.4,1
TIME 0000000e 1568195743.5,1
TIME 0000000e 1568195744.4,1
TIME 0000000e 1568195744.5,1
TIME 0000000e 1568195745.4,1
TIME 0000000e 1568195745.5,1
TIME 0000000e 1568195746.4,1
TIME 0000000e 1568195746.5,1
TIME 0000000e 1568195747.4,1
TIME 0000000e 1568195747.5,1
TIME 0000000e 1568195748.4,1
TIME 0000000e 1568195748.5,1
TIME 0000000e 1568195749.4,1
TIME 0000000e 1568195749.5,1
TIME 0000000e 1568195750.4,1
TIME 0000000e 1568195750.5,1
TIME 0000000e 1568195751.4,1
TIME 0000000e 1568195751.5,1
TIME 0000000e 1568195752.4,1
TIME 0000000e 1568195752.5,1
TIME 0000000e 1568195753.4,1
TIME 0000000e 1568195753.5,1
TIME 0000000e 1568195754.4,1
TIME 0000000e 1568195754.5,1
TIME 0000000e 1568195755.4,1
TIME 0000000e 1568195755.5,1
TIME 0000000e 1568195756.4,1
TIME 0000000e 1568195756.5,1
TIME 0000000e 1568195757.4,1
TIME 0000000e 1568195757.5,1
TIME 0000000e 1568195758.4,1
TIME 0000000e 1568195758.5,1
TIME 0000000e 1568195759.4,1
TIME 0000000e 1568195759.5,1
TIME 0000000e 1568195760.4,1
TIME 0000000e 1568195760.5,1
TIME 0000000e 1568195761.4,1
TIME 0000000e 1568195761.5,1
TIME 0000000e 1568195762.4,1
TIME 0000000e 1568195762.5,1
TIME 0000000e 1568195763.4,1
TIME 0000000e 1568195763.5,1
TIME 0000000e 1568195764.4,1
TIME 0000000e 1568195764.5,1
TIME 0000000e 1568195765.4,1
TIME 0000000e 1568195765.5,1
TIME 0000000e 1568195766.4,1
TIME 0000000e 1568195766.5,1
TIME 0000000e 1568195767.4,1
TIME 0000000e 1568195767.5,1
TIME 0000000e 1568195768.4,1
TIME 0000000e 1568195768.5,1
TIME 0000000e 1568195769.4,1
TIME 0000000e 1568195769.5,1
TIME 0000000e 1568195770.4,1
TIME 0000000e 1568195770.5,1
TIME 0000000e 1568195771.4,1
TIME 0000000e 1568195771.5,1
TIME 0000000e 1568195772.4,1
TIME 0000000e 1568195772.5,1
TIME 0000000e 1568195773.4,1
TIME 0000000e 1568195773.5,1
TIME 0000000e 1568195774.4,1
TIME 0000000e 1568195774.5,1
TIME 0000000e 1568195775.4,1
TIME 0000000e 1568195775.5,1
TIME 0000000e 1568195776.4,1
TIME 0000000e 1568195776.5,1
TIME 0000000e 1568195777.4,1
TIME 0000000e 1568195777.5,1
TIME 0000000e 1568195778.4,1
TIME 0000000e 1568195778.5,1
TIME 0000000e 1568195779.4,1
TIME 0000000e 1568195779.5,1
TIME 0000000e 1568195780.4,1
TIME 0000000e 1568195780.5,1
TIME 0000000e 1568195781.4,1
TIME 0000000e 1568195781.5,1
TIME 0000000e 1568195782.4,1
TIME 0000000e 1568195782.5,1
TIME 0000000e 1568195783.4,1
TIME 0000000e 1568195783.5,1
TIME 0000000e 1568195784.4,1
TIME 0000000e 1568195784.5,1
TIME 0000000e 1568195785.4,1
TIME 0000000e 1568195785.5,1
TIME 0000000e 1568195786.4,1
TIME 0000000e 1568195786.5,1
TIME 0000000e 1568195787.4,1
TIME 0000000e 1568195787.5,1
TIME 0000000e 1568195788.4,1
TIME 0000000e 1568195788.5,1
TIME 0000000e 1568195789.4,1
TIME 0000000e 1568195789.5,1
TIME 0000000e 1568195790.4,1
TIME 0000000e 1568195790.5,1
TIME 0000000e 1568195791.4,1
TIME 0000000e 1568195791.5,1
TIME 0000000e 1568195792.4,1
TIME 0000000e 1568195792.5,1
TIME 0000000e 1568195793.4,1
TIME 0000000e 1568195793.5,1
TIME 0000000e 1568195794.4,1
TIME 0000000e 1568195794.5,1
TIME 0000000e 1568195795.4,1
TIME 0000000e 1568195795.5,1
TIME 0000000e 1568195796.4,1
TIME 0000000e 1568195796.5,1
TIME 0000000e 1568195797.4,1
TIME 0000000e 1568195797.5,1
TIME 0000000e 1568195798.4,1
TIME 0000000e 1568195798.5,1
TIME 0000000e 1568195799.4,1
TIME 0000000e 1568195799.5,1
TIME 0000000e 1568195800.4,1
TIME 0000000e 1568195800.5,1
TIME 0000000e 1568195801.4,1
TIME 0000000e 1568195801.5,1
TIME 0000000e 1568195802.4,1
TIME 0000000e 1568195802.5,1
TIME 0000000e 1568195803.4,1
TIME 0000000e 1568195803.5,1
TIME 0000000e 1568195804.4,1
TIME 0000000e 1568195804.5,1
TIME 0000000e 1568195805.4,1
TIME 0000000e 1568195805.5,1
TIME 0000000e 1568195806.4,1
TIME 0000000e 1568195806.5,1
TIME 0000000e 1568195807.4,1
TIME 0000000e 1568195807.5,1
TIME 0000000e 1568195808.4,1
TIME 0000000e 1568195808.5,1
TIME 0000000e 1568195809.4,1
TIME 0000000e 1568195809.5,1
TIME 0000000e 1568195810.4,1
TIME 0000000e 1568195810.5,1
TIME 0000000e 1568195811.4,1
TIME 0000000e 1568195811.5,1
TIME 0000000e 1568195812.4,1
TIME 0000000e 1568195812.5,1
TIME 0000000e 1568195813.4,1
TIME 0000000e 1568195813.5,1
TIME 0000000e 1568195814.4,1
TIME 0000000e 1568195814.5,1
TIME 0000000e 1568195815.4,1
TIME 0000000e 1568195815.5,1
TIME 0000000e 1568195816.4,1
TIME 0000000e 1568195816.5,1
TIME 0000000e 1568195817.4,1
TIME 0000000e 1568195817.5,1
TIME 0000000e 1568195818.4,1
TIME 0000000e 1568195818.5,1
TIME 0000000e 1568195819.4,1
TIME 0000000e 1568195819.5,1
TIME 0000000e 1568195820.4,1
TIME 0000000e 1568195820.5,1
TIME 0000000e 1568195821.4,1
TIME 0000000e 1568195821.5,1
TIME 0000000e 1568195822.4,1
TIME 0000000e 1568195822.5,1
TIME 0000000e 1568195823.4,1
TIME 0000000e 1568195823.5,1
TIME 0000000e 1568195824.4,1
TIME 0000000e 1568195824.5,1
TIME 0000000e 1568195825.4,1
TIME 0000000e 1568195825.5,1
TIME 0000000e 1568195826.4,1
TIME 0000000e 1568195826.5,1
TIME 0000000e 1568195827.4,1
TIME 0000000e 1568195827.5,1
TIME 0000000e 1568195828.4,1
TIME 0000000e 1568195828.5,1
TIME 0000000e 1568195829.4,1
TIME 0000000e 1568195829.5,1
TIME 0000000e 1568195830.4,1
TIME 0000000e 1568195830.5,1
TIME 0000000e 1568195831.4,1
TIME 0000000e 1568195831.5,1
TIME 0000000e 1568195832.4,1
TIME 0000000e 1568195832.5,1
TIME 0000000e 1568195833.4,1
TIME 0000000e 1568195833.5,1
TIME 0000000e 1568195834.4,1
TIME 0000000e 1568195834.5,1
TIME 0000000e 1568195835.4,1
TIME 0000000e 1568195835.5,1
TIME 0000000e 1568195836.4,1
TIME 0000000e 1568195836.5,1
TIME 0000000e 1568195837.4,1
TIME 0000000e 1568195837.5,1
TIME 0000000e 1568195838.4,1
TIME 0000000e 1568195838.5,1
TIME 0000000e 1568195839.4,1
TIME 0000000e 1568195839.5,1
TIME 0000000e 1568195840.4,1
TIME 0000000e 1568195840.5,1
TIME 0000000e 1568195841.4,1
TIME 0000000e 1568195841.5,1
TIME 0000000e 1568195842.4,1
TIME 0000000e 1568195842.5,1
TIME 0000000e 1568195843.4,1
TIME 0000000e 1568195843.5,1
TIME 0000000e 1568195844.4,1
TIME 0000000e 1568195844.5,1
TIME 0000000e 1568195845.4,1
TIME 0000000e 1568195845.5,1
TIME 0000000e 1568195846.4,1
TIME 0000000e 1568195846.5,1
TIME 0000000e 1568195847.4,1
TIME 0000000e 1568195847.5,1
TIME 0000000e 1568195848.4,1
TIME 0000000e 1568195848.5,1
TIME 0000000e 1568195849.4,1
TIME 0000000e 1568195849.5,1
TIME 0000000e 1568195850.4,1
TIME 0000000e 1568195850.5,1
TIME 0000000e 1568195851.4,1
TIME 0000000e 1568195851.5,1
TIME 0000000e 1568195852.4,1
TIME 0000000e 1568195852.5,1
TIME 0000000e 1568195853.4,1
TIME 0000000e 1568195853.5,1
DISC 0000003c 6735348321910835552:6735629809772448096 from 127.0.0.1:58182
