VERS 00000001 5
HEAD 0000131e <?xml version="1.0"?>
<?xml-stylesheet type="text/xsl" href="/resources/transform.xslt"?><header><componentName>correlator</componentName><version>10.5.0.0.357639</version><build>rel/10.5.0.x@357639</build><buildPlatform>amd64-win</buildPlatform><platform>Windows 10 Enterprise</platform><cputype>GenuineIntel family 6 model 14 stepping 3 Intel(R) Core(TM) i7-6600U CPU @ 2.60GHz</cputype><cpus name="cpus">4.00</cpus><javaEnabled>true</javaEnabled><replayLogMode>inputLog</replayLogMode><args><arg>C:\dev\apama_win_full_latest\Apama\bin\correlator.exe</arg><arg>--config</arg><arg>C:\Users\y508970\workspace105\CoffeeFactoryDataSimulator\config\CorrelatorConfig.yaml</arg><arg>--port</arg><arg>15904</arg><arg>--loglevel</arg><arg>INFO</arg><arg>--name</arg><arg>Apama Designer Correlator for CoffeeFactoryDataSimulator(CoffeeFactoryDataSimulator:Correlator2)</arg><arg>-j</arg><arg>--inputLog</arg><arg>logs/Correlator2_${START_TIME}_${ID}.input.log</arg></args><environment><variable>ALLUSERSPROFILE=C:\ProgramData</variable><variable>APAMA_HOME=C:\dev\apama_win_full_latest\Apama</variable><variable>APAMA_WORK=C:\Users\Public\SoftwareAG\ApamaWork_10.5</variable><variable>APPDATA=C:\Users\y508970\AppData\Roaming</variable><variable>COMMONPROGRAMFILES=C:\Program Files\Common Files</variable><variable>COMMONPROGRAMFILES(X86)=C:\Program Files (x86)\Common Files</variable><variable>COMMONPROGRAMW6432=C:\Program Files\Common Files</variable><variable>COMPUTERNAME=SAG-98V9PF2</variable><variable>COMSPEC=C:\Windows\system32\cmd.exe</variable><variable>DEFLOGDIR=C:\ProgramData\McAfee\Endpoint Security\Logs</variable><variable>DRIVERDATA=C:\Windows\System32\Drivers\DriverData</variable><variable>EMPIRUMSERVER=cukuni02.eur.ad.sag</variable><variable>EMPIRUMSERVICEPARTITION=0</variable><variable>EMPSRVLONG=cukuni02.eur.ad.sag</variable><variable>HOMEDRIVE=C:</variable><variable>HOMEPATH=\Users\y508970</variable><variable>LOCALAPPDATA=C:\Users\y508970\AppData\Local</variable><variable>LOGONSERVER=\\CUKDC85</variable><variable>NUMBER_OF_PROCESSORS=4</variable><variable>ONEDRIVE=C:\Users\y508970\OneDrive - Software AG</variable><variable>ONEDRIVECOMMERCIAL=C:\Users\y508970\OneDrive - Software AG</variable><variable>OS=Windows_NT</variable><variable>PATH=C:\dev\apama_win_full_latest\Apama\..\jvm\jvm\jre\bin\server;C:\dev\apama_win_full_latest\Apama\..\jvm\jvm\jre\bin;C:\dev\apama_win_full_latest\Apama\bin;C:\dev\apama_win_full_latest\Apama\..\common\security\openssl\bin;C:\Users\Public\SoftwareAG\ApamaWork_10.5\lib;C:\dev\apama_win_full_latest\Apama\..\jvm\jvm\jre\bin;C:\dev\apama_win_full_latest\Apama\..\jvm\jvm\jre\bin\server;C:\dev\apama_win_full_latest\Apama\..\UniversalMessaging\cplus\lib\x86_64;C:\dev\apama_win_full_latest\Apama\bin;C:\Windows\system32;C:\Windows;C:\Windows\System32\Wbem;C:\Windows\System32\WindowsPowerShell\v1.0\;C:\Windows\System32\OpenSSH\;C:\Program Files\Intel\WiFi\bin\;C:\Program Files\Common Files\Intel\WirelessCommon\;C:\Program Files (x86)\Intel\Intel(R) Management Engine Components\DAL;C:\Program Files\Intel\Intel(R) Management Engine Components\DAL;C:\Program Files\PuTTY\;C:\Program Files\SlikSvn\bin;C:\Program Files\dotnet\;C:\Program Files\Microsoft SQL Server\130\Tools\Binn\;C:\Program Files\TortoiseSVN\bin;C:\Program Files\TortoiseGit\bin;C:\Users\y508970\AppData\Local\Microsoft\WindowsApps;C:\Users\y508970\AppData\Local\Programs\Git\cmd;C:\Users\y508970\AppData\Local\GitHubDesktop\bin</variable><variable>PATHEXT=.COM;.EXE;.BAT;.CMD;.VBS;.VBE;.JS;.JSE;.WSF;.WSH;.MSC</variable><variable>PROCESSOR_ARCHITECTURE=AMD64</variable><variable>PROCESSOR_IDENTIFIER=Intel64 Family 6 Model 78 Stepping 3, GenuineIntel</variable><variable>PROCESSOR_LEVEL=6</variable><variable>PROCESSOR_REVISION=4e03</variable><variable>PROGRAMDATA=C:\ProgramData</variable><variable>PROGRAMFILES=C:\Program Files</variable><variable>PROGRAMFILES(X86)=C:\Program Files (x86)</variable><variable>PROGRAMW6432=C:\Program Files</variable><variable>PROMPT=$P$G</variable><variable>PSMODULEPATH=C:\Program Files\WindowsPowerShell\Modules;C:\Windows\system32\WindowsPowerShell\v1.0\Modules;C:\Program Files\Barracuda\Network Access Client\Modules</variable><variable>PUBLIC=C:\Users\Public</variable><variable>SESSIONNAME=Console</variable><variable>SSL_CERT_FILE=C:\dev\apama_win_full_latest\Apama\..\common\security\openssl\cert.pem</variable><variable>SYSTEMDRIVE=C:</variable><variable>SYSTEMROOT=C:\Windows</variable><variable>TEMP=C:\Users\y508970\AppData\Local\Temp</variable><variable>TMP=C:\Users\y508970\AppData\Local\Temp</variable><variable>USERDNSDOMAIN=EUR.AD.SAG</variable><variable>USERDOMAIN=EUR</variable><variable>USERDOMAIN_ROAMINGPROFILE=EUR</variable><variable>USERNAME=y508970</variable><variable>USERPROFILE=C:\Users\y508970</variable><variable>WINDIR=C:\Windows</variable></environment><version>10.5.0.0.357639</version></header>
YAML 000005c5 ###############################################################################
# $Copyright (c) 2016 Software AG, Darmstadt, Germany and/or Software AG USA Inc., Reston, VA, USA, and/or its subsidiaries and/or its affiliates and/or their licensors.$
# Use, reproduction, transfer, publication or disclosure is prohibited except as specifically provided for in your License Agreement with Software AG
###############################################################################

#To set the default log file and level for an EPL package, monitor, or event, specify
# logging details in the eplLogging section of the YAML configuration file.
#For example:
#eplLogging:
#  com.myCompany.Client:
#    file: apama/Client.log
#    level: DEBUG
#  com.myCompany.Internal: { level: ERROR }

engineConnect:
    - sourceHost: localhost
      sourcePort: 15903

      channels:
        - roastSimulatorChannel
        - extractorSimulatorChannel
        - freezeSimulatorChannel
        - freezeDryerSimulatorChannel

      mode: parallel
      disconnectIfSlow: true

#See the information on setting log files and log levels in a YAML configuration file in the documentation for more
# information about the supported options.
#To enable use of this file when you launch this project from Designer, edit the project's run/launch configuration,
#open the correlator, and tick the "Configuration" checkbox next to the textbox that names this .yaml file.
 00000055 C:\Users\y508970\workspace105\CoffeeFactoryDataSimulator\config\CorrelatorConfig.yaml
RAND 00000009 462042212
TIME 0000000f 1568125106.81,1
CONN 0000003c 6735046043056261472:6734764572374518112 from 127.0.0.1:55931
CONN 0000003c 6735045922766244192:6736734897180559712 from 127.0.0.1:15903
TIME 0000000e 1568125107.1,1
CONN 0000003c 1907214234774601728:1984464689023090688 from 127.0.0.1:55929
TIME 0000000e 1568125107.6,1
MONF 0000145f 
/** This event consists of events full of constants which are used in the RoastDrum.mon file */

event BeanColor{
	constant integer VERY_LIGHT := 90;
	constant integer LIGHT := 80;
	constant integer YELLOW := 70;
	constant integer BROWN := 60;
	constant integer VERY_BROWN := 40;
	constant integer BLACK := 20;
}

event AlertType{
	constant integer IMMINENT_FIRE := 1;
	constant integer FIRST_CRACK := 2;
	constant integer BROWN_STAGE := 3;
	constant integer FULL_CITY := 4;
	constant integer VIENA_COFFEE := 5;
	constant integer FULL_FRENCH := 6;
}

event BeanColorVolt{
	constant float MAXIMUM := 100.0; // = 10Volt DC -> green bean;
	constant float MINIMUM := 10.0; // = 1Volt DC -> extremely dark black bean;
}

event BeanTemp{
	// ALL values below are temperatures in celsius.
	//The names of the constants represent the color of the beans at the specific temperatures;
	constant float PALE := 131.0;
	constant integer LIGHT_BROWN := 198;
	constant integer MEDIUM_LIGHT_BROWN := 207;
	constant integer FULL_MEDIUM := 218;
	constant integer MEDIUM_DARK_BROWN := 223;
	constant integer DARK_BROWN := 229;
	constant integer VERY_DARK := 243;
	
}

event FreezerTemp{
	constant float RANDOM_FLUCTUATION_NUMBER := 1.5;
}

event FreezerDryer{
	constant float RANDOM_FLUCTUATION_NUMBER := 1.9;
	constant float MINIMUM_MOISTURE := 0.0;
}

event UserStatus{
	//The values represent the names of the queries that are passed to Prometheus
	//from which Grafana request them and uses their data;
	//Variables below are used in RoastDrum.mon
	constant string DRUM := "drum";
	constant string BEAN_COLOR := "beanColor";
	constant string BEAN_ILLUSTRATOR := "beanIllustrator";
	constant string ALERT := "alert";
	
	//Variables below are used in Extractor.mon
	constant string CAFFEINE := "caffeine";
	constant string VOLATILE_OILS := "volatileOils";
	constant string ORGANIC_ACIDS := "organicAcids";
	constant string EXTRACTOR_TEMP := "extractorTemp";
	constant string COFFEE_TO_WATER_RATIO := "coffeeToWater";
	
	constant string FREEZER_TEMP := "freezerTemp";
	
	constant string MOISTURE := "moisture";
	constant string VACUUM := "vacuum";
	constant string FREEZER_DRYER_TEMP := "freezerDryerTemp";
}

event Channel{
	constant string ROAST := "roastChannel";
	constant string EXTRACTOR := "extractorChannel";
	constant string FREEZE := "freezeChannel";
	constant string FREEZE_DRYER := "freezeDryerChannel";
	
	constant string ROAST_SIMULATOR := "roastSimulatorChannel";
	constant string EXTRACTOR_SIMULATOR := "extractorSimulatorChannel";
    constant string FREEZER_SIMULATOR := "freezeSimulatorChannel";
    constant string FREEZE_DRYER_SIMULATOR := "freezeDryerSimulatorChannel";

}

event Caffeine{
	// default values used to increase/decrease the height/length of the caffeine graph;
	constant float GRAPH_HEIGHT := 7.7;
	constant float GRAPH_LENGTH := 0.188;
}

event VolatileOils{
	// default values used to increase/decrease the height/length of the volatile oils graph;
	constant float GRAPH_HEIGHT := 5.19;
	constant float GRAPH_LENGTH := 0.0415;
}

event OrganicAcids{
	// default values used to increase/decrease the height/length of the organic graph;
	constant float GRAPH_HEIGHT := 3.11;
	constant float GRAPH_LENGTH := 0.0197;
}

event Math{
	constant float CUBED := 3.0;
	constant float PLANCK_FORMULA_SUBTRACTOR := -1.0; // bl
}

event Message{
	constant string LOADED_ROAST_SIMULATOR := "Loaded monitor RoastSimulator";
	constant string LOADED_EXTRACT_SIMULATOR := "Loaded monitor ExtractorSimulator";
	constant string LOADED_FREEZER_SIMULATOR := "Loaded monitor FreezerSimulator";
	constant string LOADED_FREEZE_DRYER_SIMULATOR := "Loaded monitor FreezerDryerSimulator";
}

event Time{
	constant float ADD_SECOND := 1.0;
}

event ExtractionBounds{ // bounds within the graph
	constant float MAXIMUM := 110.0;
	constant float MINIMUM := 0.0;
}

event Temperature{
	constant float PREHEAT_NUMBER := 13.1; //A random number; The random number has to be lower than 20 and higher than 10;
	constant float DRUM_MINIMUM := 0.0;
	constant float IMMINENT_FIRE := 258.0; // temperature at which the beans will start going on fire;
	
	constant float EXTRACTOR_INITIAL := 140.0; // random number between 130 and 150;
	//Has to differ from the starting drum temp in RoastDrum because it looks better on Grafana;
	constant float EXTRACTOR_PREHEAT := 12.1;  //A random number; The random number has to be lower than 20 and higher than 10;
	
	constant float FREEZER_MAX := -60.0;
	constant float FREEZER_MIN := -20.0;
}

event ColorScheme{
	constant integer SIZE := 50; // the size of the color scheme graph on Grafana that is displaying the current color of the beans;
}

event Divider{
	constant integer BY_HALF := 2;
}

event BeanTracker{
	constant float COLOR_CHANGER := 0.9; // 
	constant float COLOR_GATE_ENTRY := 0.4; // representing the percent (e.g. 0.4 = 40%);
}

event BeanRandom{
	constant float TEMP_INCREMENTER := 1.8; // maximum random value;
	constant float GATE_BOUND := 1.0; // representing the maximum percent value(e.g. 1.0 = 100%, 0.9 = 90%);
}
 00000064 C:\Users\y508970\workspace105\CoffeeFactoryDataSimulator\eventdefinitions\CoffeeFactoryConstants.mon
MONF 00000cec 
/** This monitor is responsible for ...  */

event CaffeineEvent{
	float currentCaffeine;
}

event VolatileOilsEvent{
	float currentVolatileOils;
}

event OrganicAcidsEvent{
	float currentOrganicAcids;
}

event ExtractorTemperature{
	float currentTemperature;
}

monitor ExtractorSimulator {

	float currentCaffeine := 1.0;
	float currentVolatileOils := 3.0;
	float currentOrganicAcids := 8.0;
	float currentTemp := preheatExtractor();
	float currentCoffeeToWaterRatio := 0.0;
	
	boolean highExtractionTemp := false; // used as a gate to decrease the temp;
	boolean lowExtractionTemp := true; // used as a gate to increase the temp;
	
	float caffeineTimeCounterSecs := 0.0;
	float oilsTimeCounterSecs := 0.0;
	float acidsTimeCounterSecs := 0.0;
	
	//Side value => Amount of compound (Unit) - A
	
	action onload() {
		log Message.LOADED_EXTRACT_SIMULATOR at INFO;
		initialize();
	}

	action initialize(){
		implementExtractorTemp();
		extractAll();
	}

	action extractAll(){
		extractCaffeine();
		extractVolatileOils();
		extractOrganicAcids();
	}

	/** 
	...
	*/
	action extractCaffeine(){
		listener listen := on all wait (1.0){
			currentCaffeine := blackBodyFormula(caffeineTimeCounterSecs, Caffeine.GRAPH_HEIGHT, Caffeine.GRAPH_LENGTH);  
			send CaffeineEvent(currentCaffeine) to Channel.EXTRACTOR; 
			caffeineTimeCounterSecs := caffeineTimeCounterSecs + Time.ADD_SECOND;
		}
	}

	/** 
	...
	*/
	action extractVolatileOils(){
		listener listen := on all wait (1.0){		
			currentVolatileOils := blackBodyFormula(oilsTimeCounterSecs, VolatileOils.GRAPH_HEIGHT, VolatileOils.GRAPH_LENGTH);	
			send VolatileOilsEvent(currentVolatileOils) to Channel.EXTRACTOR; 
			oilsTimeCounterSecs := oilsTimeCounterSecs + Time.ADD_SECOND;
		}
	}
	
	/** 
	...
	*/	
	action extractOrganicAcids(){
		listener listen := on all wait (1.0){
			currentOrganicAcids := blackBodyFormula(acidsTimeCounterSecs, OrganicAcids.GRAPH_HEIGHT, OrganicAcids.GRAPH_LENGTH); 
			send OrganicAcidsEvent(currentOrganicAcids) to Channel.EXTRACTOR; 
			acidsTimeCounterSecs := acidsTimeCounterSecs + Time.ADD_SECOND;
		}
	}
	
	/** 
		Increases/decreases the temperature in the extractor drum;
		
	*/
	action implementExtractorTemp(){
		listener listen := on all wait (2.0){
			float randomTempIncrementor := (2.0).rand(); // TODO FIX MAGIC NUMBER;
			currentTemp := currentTemp + randomTempIncrementor;
			send ExtractorTemperature(currentTemp) to Channel.EXTRACTOR; 
		}
	}
	
	/** 
	@param time = the time that has passed in seconds;
	@param height = increase value for higher function and decrease for lower; 7.7 is a random default value;
	@param length = increase to shrink function, decrease to expand function; 0.188 is a random default value;
	@return Max Planck's formula for Black-body radition
	*/
	action blackBodyFormula(float time, float height, float length) returns float{
		return (height * (length * time).pow(Math.CUBED)) / ( (float.E).pow(length * time) - Math.PLANCK_FORMULA_SUBTRACTOR);
	}
	
	/** 
	...
	*/
	action updateCoffeeToWaterRatio(){	
		//send ... to ...
	}
	
	action preheatExtractor() returns float{
		return (Temperature.EXTRACTOR_PREHEAT).rand() + Temperature.EXTRACTOR_INITIAL;
	}
	
}
 00000058 C:\Users\y508970\workspace105\CoffeeFactoryDataSimulator\monitors\ExtractorSimulator.mon
MONF 0000066c 
/** This monitor is responsible for ...  */

event FreezerDryerMoisture{
	float currentMoisture;
}

event FreezerDryerTemp{
	float currentTemp;
}

event FreezerDryerVacuum{
	float currentVacuum;
}

monitor FreezeDryerSimulator {

	float currentMoisture := 100.0;
	float currentTemp := 60.0;
	float currentVacuum := 150.0;
		
	boolean tempGate := false;
	boolean moistureGate := false;
	boolean vacuumGate := false;
	
	action onload() {
		initialize();
	}

	action initialize(){
		log Message.LOADED_FREEZE_DRYER_SIMULATOR at INFO;
		moistureEvaporating();
		implementTubeTemperature();
	}
		
	action moistureEvaporating(){
		listener listen := on all wait (2.0){
			float random := -(FreezerDryer.RANDOM_FLUCTUATION_NUMBER).rand();
			currentMoisture := currentMoisture + random;
			send FreezerDryerMoisture(currentMoisture) to Channel.FREEZE_DRYER;
		}
	}
	
	action implementTubeTemperature(){
		listener listen := on all wait (3.0){
			float random := (1.0).rand();
			currentTemp := currentTemp + random;
			implementFluctuation(tempGate, currentTemp);
			send FreezerDryerTemp(currentMoisture) to Channel.FREEZE_DRYER;
		}
	}
	
	action implementTubeVacuum(){
		listener listen := on all wait (2.0){
			float random := (3.0).rand(); 
			currentTemp := currentTemp + random;
			implementFluctuation(vacuumGate, currentTemp);
			send FreezerDryerTemp(currentMoisture) to Channel.FREEZE_DRYER;
		}
	}
	
	action implementFluctuation(boolean gate, float currentValue){
		if gate {
			currentValue := -currentValue;
			gate := false;
		}else{
			gate := true;
		}
	}
	
	
}
 0000005a C:\Users\y508970\workspace105\CoffeeFactoryDataSimulator\monitors\FreezeDryerSimulator.mon
MONF 0000043f 
/** This monitor is responsible for ...  */

event FreezerTemperature{
	float currentFreezerTemp;
}

monitor FreezerSimulator {
	
	float currentFreezerTemp := -50.0; // default freezer temperature;
	boolean flag := false; //When using the random variable we either decrease or
	//increase the current freezer temperature, using this variable we set the turns;

	action onload() {
		log Message.LOADED_FREEZER_SIMULATOR at INFO;
		freeze();
	}
	
	action freeze(){
		listener listen := on all wait (3.0){
			float randomTemp := getRandomTemp();	
			currentFreezerTemp := (currentFreezerTemp + randomTemp);
			send FreezerTemperature(currentFreezerTemp) to Channel.FREEZE;
			log "Simulation Freezer temp: " + currentFreezerTemp.toString() at INFO;

		}
	}
	
	action getRandomTemp() returns float{
		float randomTemp := (FreezerTemp.RANDOM_FLUCTUATION_NUMBER).rand();
		// below = take turns adding -> subtracting random values; 
		if flag {
			randomTemp := -randomTemp;
			flag := false;
		}else{
			flag := true;
		}
		return randomTemp;
	}
	
}
 00000056 C:\Users\y508970\workspace105\CoffeeFactoryDataSimulator\monitors\FreezerSimulator.mon
MONF 00000ae2 
event ColorTrack{
	float currentBeanVolt;
}

event DrumTemperature{
	float currentDrumTemperature;
}

/** This monitor is responsible for ...  */

monitor RoastDrumSimulator {

	integer beanIllustrator := 1; //parses the number so the program can display the actual color of the bean in a range from 1 to 100; Where 1 is green and very black is 100;
	integer currentBeanTemp := 0; // average temp;

	float currentDrumTemp := preheatDrum(); // default temp in drum before roasting is just below 200, e.g. 190;
	float currentBeanVolt := BeanColorVolt.MAXIMUM; 
	
	boolean highRoastTemp := false; // used as a gate to decrease the temp;
	boolean lowRoastTemp := true; // used as a gate to increase the temp;
	
	action onload() {
		log Message.LOADED_ROAST_SIMULATOR at INFO;
		initialize();
	}

	action initialize(){
			heatDrum();
			colorTrack();
	}
	
	/** 
	@return ...
	*/
	action preheatDrum() returns float{
		return (Temperature.PREHEAT_NUMBER).rand() + BeanTemp.PALE;
	}
	
	/** 
		...
	*/
	action heatDrum(){		
		listener listen := on all wait (2.0){
			float randomTemp := (BeanRandom.TEMP_INCREMENTER).rand();				
			currentDrumTemp := (currentDrumTemp + randomTemp);
			send DrumTemperature(currentDrumTemp) to Channel.ROAST;
		}
	}	
	
	/** 
		....
	*/
	action colorTrack(){
		listener listen := on all wait (1.0){
			float randomVoltIncrease := (BeanTracker.COLOR_CHANGER).rand(); // the beans spin while in the drum, therefore their temperature might differ slightly. Plus, making the graph more realistic;
			float gate := (BeanRandom.GATE_BOUND).rand();
			integer beanColorIllustrator := getBeanIllustrator(currentBeanVolt);

			implementBeanVolt(gate, randomVoltIncrease);
			send ColorTrack(currentBeanVolt) to Channel.ROAST;
		}
	}
	
	/** 
	@param gate ...
	@param randomVoltIncrease ...
	*/
	action implementBeanVolt(float gate, float randomVoltIncrease){
		if gate <= BeanTracker.COLOR_GATE_ENTRY {
			currentBeanVolt := currentBeanVolt + randomVoltIncrease;
		}else{
			currentBeanVolt := currentBeanVolt - BeanTracker.COLOR_CHANGER; // 0-100 Volts DC; 280 maximum temp in drum -> 280/100 = 2.8; Therefore, 2.8 decrease per degree celsius;
		}
	}
	
	/** 
	@param beanVolt ...
	@return ....
		formula: the color scheme graph contains half the range the beanvolt has
		(i.e. BeanVolt starts at 100 and goes down to 0, colorScheme starts at 0 and goes up to 50).
		Hence, get half of bean volt and remove 50 since the colorScheme operates in the 0-50 range;
	*/
	action getBeanIllustrator(float beanVolt) returns integer {
		return (getHalf(beanVolt) - ColorScheme.SIZE).abs(); 
	}
	
	action getHalf(float value) returns integer{
		return value.floor() / Divider.BY_HALF;
	}
}
  00000054 C:\Users\y508970\workspace105\CoffeeFactoryDataSimulator\monitors\RoastSimulator.mon
DISC 0000003c 1907214234774601728:1984464689023090688 from 127.0.0.1:55929
TIME 0000000e 1568125108.6,1
TIME 0000000e 1568125109.6,1
TIME 0000000e 1568125110.6,1
TIME 0000000e 1568125111.6,1
TIME 0000000e 1568125112.6,1
TIME 0000000e 1568125113.6,1
TIME 0000000e 1568125114.6,1
TIME 0000000e 1568125115.6,1
TIME 0000000e 1568125116.6,1
TIME 0000000e 1568125117.6,1
TIME 0000000e 1568125118.6,1
TIME 0000000e 1568125119.6,1
TIME 0000000e 1568125120.6,1
TIME 0000000e 1568125121.6,1
TIME 0000000e 1568125122.6,1
TIME 0000000e 1568125123.6,1
TIME 0000000e 1568125124.6,1
TIME 0000000e 1568125125.6,1
TIME 0000000e 1568125126.6,1
TIME 0000000e 1568125127.6,1
TIME 0000000e 1568125128.6,1
TIME 0000000e 1568125129.6,1
TIME 0000000e 1568125130.6,1
TIME 0000000e 1568125131.6,1
TIME 0000000e 1568125132.6,1
TIME 0000000e 1568125133.6,1
TIME 0000000e 1568125134.6,1
TIME 0000000e 1568125135.6,1
TIME 0000000e 1568125136.6,1
TIME 0000000e 1568125137.6,1
TIME 0000000e 1568125138.6,1
TIME 0000000e 1568125139.6,1
TIME 0000000e 1568125140.6,1
TIME 0000000e 1568125141.6,1
TIME 0000000e 1568125142.6,1
TIME 0000000e 1568125143.6,1
TIME 0000000e 1568125144.6,1
TIME 0000000e 1568125145.6,1
TIME 0000000e 1568125146.6,1
TIME 0000000e 1568125147.6,1
TIME 0000000e 1568125148.6,1
TIME 0000000e 1568125149.6,1
TIME 0000000e 1568125150.6,1
TIME 0000000e 1568125151.6,1
TIME 0000000e 1568125152.6,1
TIME 0000000e 1568125153.6,1
TIME 0000000e 1568125154.6,1
TIME 0000000e 1568125155.6,1
TIME 0000000e 1568125156.6,1
TIME 0000000e 1568125157.6,1
TIME 0000000e 1568125158.6,1
TIME 0000000e 1568125159.6,1
TIME 0000000e 1568125160.6,1
TIME 0000000e 1568125161.6,1
TIME 0000000e 1568125162.6,1
TIME 0000000e 1568125163.6,1
TIME 0000000e 1568125164.6,1
TIME 0000000e 1568125165.6,1
TIME 0000000e 1568125166.6,1
TIME 0000000e 1568125167.6,1
TIME 0000000e 1568125168.6,1
TIME 0000000e 1568125169.6,1
TIME 0000000e 1568125170.6,1
TIME 0000000e 1568125171.6,1
TIME 0000000e 1568125172.6,1
TIME 0000000e 1568125173.6,1
TIME 0000000e 1568125174.6,1
TIME 0000000e 1568125175.6,1
TIME 0000000e 1568125176.6,1
TIME 0000000e 1568125177.6,1
TIME 0000000e 1568125178.6,1
TIME 0000000e 1568125179.6,1
TIME 0000000e 1568125180.6,1
TIME 0000000e 1568125181.6,1
TIME 0000000e 1568125182.6,1
TIME 0000000e 1568125183.6,1
TIME 0000000e 1568125184.6,1
TIME 0000000e 1568125185.6,1
TIME 0000000e 1568125186.6,1
TIME 0000000e 1568125187.6,1
TIME 0000000e 1568125188.6,1
TIME 0000000e 1568125189.6,1
TIME 0000000e 1568125190.6,1
TIME 0000000e 1568125191.6,1
TIME 0000000e 1568125192.6,1
TIME 0000000e 1568125193.6,1
TIME 0000000e 1568125194.6,1
TIME 0000000e 1568125195.6,1
TIME 0000000e 1568125196.6,1
TIME 0000000e 1568125197.6,1
TIME 0000000e 1568125198.6,1
TIME 0000000e 1568125199.6,1
TIME 0000000e 1568125200.6,1
TIME 0000000e 1568125201.6,1
TIME 0000000e 1568125202.6,1
TIME 0000000e 1568125203.6,1
TIME 0000000e 1568125204.6,1
TIME 0000000e 1568125205.6,1
TIME 0000000e 1568125206.6,1
TIME 0000000e 1568125207.6,1
TIME 0000000e 1568125208.6,1
TIME 0000000e 1568125209.6,1
TIME 0000000e 1568125210.6,1
TIME 0000000e 1568125211.6,1
TIME 0000000e 1568125212.6,1
TIME 0000000e 1568125213.6,1
TIME 0000000e 1568125214.6,1
TIME 0000000e 1568125215.6,1
TIME 0000000e 1568125216.6,1
TIME 0000000e 1568125217.6,1
TIME 0000000e 1568125218.6,1
TIME 0000000e 1568125219.6,1
TIME 0000000e 1568125220.6,1
TIME 0000000e 1568125221.6,1
TIME 0000000e 1568125222.6,1
TIME 0000000e 1568125223.6,1
TIME 0000000e 1568125224.6,1
TIME 0000000e 1568125225.6,1
TIME 0000000e 1568125226.6,1
TIME 0000000e 1568125227.6,1
TIME 0000000e 1568125228.6,1
TIME 0000000e 1568125229.6,1
TIME 0000000e 1568125230.6,1
TIME 0000000e 1568125231.6,1
TIME 0000000e 1568125232.6,1
TIME 0000000e 1568125233.6,1
TIME 0000000e 1568125234.6,1
TIME 0000000e 1568125235.6,1
TIME 0000000e 1568125236.6,1
TIME 0000000e 1568125237.6,1
TIME 0000000e 1568125238.6,1
TIME 0000000e 1568125239.6,1
TIME 0000000e 1568125240.6,1
TIME 0000000e 1568125241.6,1
TIME 0000000e 1568125242.6,1
TIME 0000000e 1568125243.6,1
TIME 0000000e 1568125244.6,1
TIME 0000000e 1568125245.6,1
TIME 0000000e 1568125246.6,1
TIME 0000000e 1568125247.6,1
TIME 0000000e 1568125248.6,1
TIME 0000000e 1568125249.6,1
TIME 0000000e 1568125250.6,1
TIME 0000000e 1568125251.6,1
TIME 0000000e 1568125252.6,1
TIME 0000000e 1568125253.6,1
TIME 0000000e 1568125254.6,1
TIME 0000000e 1568125255.6,1
TIME 0000000e 1568125256.6,1
TIME 0000000e 1568125257.6,1
TIME 0000000e 1568125258.6,1
TIME 0000000e 1568125259.6,1
TIME 0000000e 1568125260.6,1
TIME 0000000e 1568125261.6,1
TIME 0000000e 1568125262.6,1
TIME 0000000e 1568125263.6,1
TIME 0000000e 1568125264.6,1
TIME 0000000e 1568125265.6,1
TIME 0000000e 1568125266.6,1
TIME 0000000e 1568125267.6,1
TIME 0000000e 1568125268.6,1
TIME 0000000e 1568125269.6,1
TIME 0000000e 1568125270.6,1
TIME 0000000e 1568125271.6,1
TIME 0000000e 1568125272.6,1
TIME 0000000e 1568125273.6,1
TIME 0000000e 1568125274.6,1
TIME 0000000e 1568125275.6,1
TIME 0000000e 1568125276.6,1
TIME 0000000e 1568125277.6,1
TIME 0000000e 1568125278.6,1
TIME 0000000e 1568125279.6,1
TIME 0000000e 1568125280.6,1
TIME 0000000e 1568125281.6,1
TIME 0000000e 1568125282.6,1
TIME 0000000e 1568125283.6,1
TIME 0000000e 1568125284.6,1
TIME 0000000e 1568125285.6,1
TIME 0000000e 1568125286.6,1
TIME 0000000e 1568125287.6,1
TIME 0000000e 1568125288.6,1
TIME 0000000e 1568125289.6,1
TIME 0000000e 1568125290.6,1
TIME 0000000e 1568125291.6,1
TIME 0000000e 1568125292.6,1
TIME 0000000e 1568125293.6,1
TIME 0000000e 1568125294.6,1
TIME 0000000e 1568125295.6,1
TIME 0000000e 1568125296.6,1
TIME 0000000e 1568125297.6,1
TIME 0000000e 1568125298.6,1
TIME 0000000e 1568125299.6,1
TIME 0000000e 1568125300.6,1
TIME 0000000e 1568125301.6,1
TIME 0000000e 1568125302.6,1
TIME 0000000e 1568125303.6,1
TIME 0000000e 1568125304.6,1
TIME 0000000e 1568125305.6,1
TIME 0000000e 1568125306.6,1
TIME 0000000e 1568125307.6,1
TIME 0000000e 1568125308.6,1
TIME 0000000e 1568125309.6,1
TIME 0000000e 1568125310.6,1
TIME 0000000e 1568125311.6,1
TIME 0000000e 1568125312.6,1
TIME 0000000e 1568125313.6,1
TIME 0000000e 1568125314.6,1
TIME 0000000e 1568125315.6,1
TIME 0000000e 1568125316.6,1
TIME 0000000e 1568125317.6,1
TIME 0000000e 1568125318.6,1
TIME 0000000e 1568125319.6,1
TIME 0000000e 1568125320.6,1
TIME 0000000e 1568125321.6,1
TIME 0000000e 1568125322.6,1
TIME 0000000e 1568125323.6,1
TIME 0000000e 1568125324.6,1
TIME 0000000e 1568125325.6,1
TIME 0000000e 1568125326.6,1
TIME 0000000e 1568125327.6,1
TIME 0000000e 1568125328.6,1
TIME 0000000e 1568125329.6,1
TIME 0000000e 1568125330.6,1
TIME 0000000e 1568125331.6,1
TIME 0000000e 1568125332.6,1
TIME 0000000e 1568125333.6,1
TIME 0000000e 1568125334.6,1
TIME 0000000e 1568125335.6,1
TIME 0000000e 1568125336.6,1
TIME 0000000e 1568125337.6,1
TIME 0000000e 1568125338.6,1
TIME 0000000e 1568125339.6,1
TIME 0000000e 1568125340.6,1
TIME 0000000e 1568125341.6,1
TIME 0000000e 1568125342.6,1
TIME 0000000e 1568125343.6,1
TIME 0000000e 1568125344.6,1
TIME 0000000e 1568125345.6,1
TIME 0000000e 1568125346.6,1
TIME 0000000e 1568125347.6,1
TIME 0000000e 1568125348.6,1
TIME 0000000e 1568125349.6,1
TIME 0000000e 1568125350.6,1
TIME 0000000e 1568125351.6,1
TIME 0000000e 1568125352.6,1
TIME 0000000e 1568125353.6,1
TIME 0000000e 1568125354.6,1
TIME 0000000e 1568125355.6,1
TIME 0000000e 1568125356.6,1
TIME 0000000e 1568125357.6,1
TIME 0000000e 1568125358.6,1
TIME 0000000e 1568125359.6,1
TIME 0000000e 1568125360.6,1
TIME 0000000e 1568125361.6,1
TIME 0000000e 1568125362.6,1
TIME 0000000e 1568125363.6,1
TIME 0000000e 1568125364.6,1
TIME 0000000e 1568125365.6,1
TIME 0000000e 1568125366.6,1
TIME 0000000e 1568125367.6,1
TIME 0000000e 1568125368.6,1
TIME 0000000e 1568125369.6,1
TIME 0000000e 1568125370.6,1
TIME 0000000e 1568125371.6,1
TIME 0000000e 1568125372.6,1
TIME 0000000e 1568125373.6,1
TIME 0000000e 1568125374.6,1
TIME 0000000e 1568125375.6,1
TIME 0000000e 1568125376.6,1
TIME 0000000e 1568125377.6,1
TIME 0000000e 1568125378.6,1
TIME 0000000e 1568125379.6,1
TIME 0000000e 1568125380.6,1
TIME 0000000e 1568125381.6,1
TIME 0000000e 1568125382.6,1
TIME 0000000e 1568125383.6,1
TIME 0000000e 1568125384.6,1
TIME 0000000e 1568125385.6,1
DISC 0000003c 6735045922766244192:6736734897180559712 from 127.0.0.1:15903
TIME 0000000c 1568125386,1
TIME 0000000e 1568125386.6,1
TIME 0000000e 1568125387.6,1
TIME 0000000e 1568125388.6,1
TIME 0000000e 1568125389.6,1
DISC 0000003c 6735046043056261472:6734764572374518112 from 127.0.0.1:55931
