VERS 00000001 5
HEAD 0000131e <?xml version="1.0"?>
<?xml-stylesheet type="text/xsl" href="/resources/transform.xslt"?><header><componentName>correlator</componentName><version>10.5.0.0.357639</version><build>rel/10.5.0.x@357639</build><buildPlatform>amd64-win</buildPlatform><platform>Windows 10 Enterprise</platform><cputype>GenuineIntel family 6 model 14 stepping 3 Intel(R) Core(TM) i7-6600U CPU @ 2.60GHz</cputype><cpus name="cpus">4.00</cpus><javaEnabled>true</javaEnabled><replayLogMode>inputLog</replayLogMode><args><arg>C:\dev\apama_win_full_latest\Apama\bin\correlator.exe</arg><arg>--config</arg><arg>C:\Users\y508970\workspace105\CoffeeFactoryDataSimulator\config\CorrelatorConfig.yaml</arg><arg>--port</arg><arg>15904</arg><arg>--loglevel</arg><arg>INFO</arg><arg>--name</arg><arg>Apama Designer Correlator for CoffeeFactoryDataSimulator(CoffeeFactoryDataSimulator:Correlator2)</arg><arg>-j</arg><arg>--inputLog</arg><arg>logs/Correlator2_${START_TIME}_${ID}.input.log</arg></args><environment><variable>ALLUSERSPROFILE=C:\ProgramData</variable><variable>APAMA_HOME=C:\dev\apama_win_full_latest\Apama</variable><variable>APAMA_WORK=C:\Users\Public\SoftwareAG\ApamaWork_10.5</variable><variable>APPDATA=C:\Users\y508970\AppData\Roaming</variable><variable>COMMONPROGRAMFILES=C:\Program Files\Common Files</variable><variable>COMMONPROGRAMFILES(X86)=C:\Program Files (x86)\Common Files</variable><variable>COMMONPROGRAMW6432=C:\Program Files\Common Files</variable><variable>COMPUTERNAME=SAG-98V9PF2</variable><variable>COMSPEC=C:\Windows\system32\cmd.exe</variable><variable>DEFLOGDIR=C:\ProgramData\McAfee\Endpoint Security\Logs</variable><variable>DRIVERDATA=C:\Windows\System32\Drivers\DriverData</variable><variable>EMPIRUMSERVER=cukuni02.eur.ad.sag</variable><variable>EMPIRUMSERVICEPARTITION=0</variable><variable>EMPSRVLONG=cukuni02.eur.ad.sag</variable><variable>HOMEDRIVE=C:</variable><variable>HOMEPATH=\Users\y508970</variable><variable>LOCALAPPDATA=C:\Users\y508970\AppData\Local</variable><variable>LOGONSERVER=\\CUKDC85</variable><variable>NUMBER_OF_PROCESSORS=4</variable><variable>ONEDRIVE=C:\Users\y508970\OneDrive - Software AG</variable><variable>ONEDRIVECOMMERCIAL=C:\Users\y508970\OneDrive - Software AG</variable><variable>OS=Windows_NT</variable><variable>PATH=C:\dev\apama_win_full_latest\Apama\..\jvm\jvm\jre\bin\server;C:\dev\apama_win_full_latest\Apama\..\jvm\jvm\jre\bin;C:\dev\apama_win_full_latest\Apama\bin;C:\dev\apama_win_full_latest\Apama\..\common\security\openssl\bin;C:\Users\Public\SoftwareAG\ApamaWork_10.5\lib;C:\dev\apama_win_full_latest\Apama\..\jvm\jvm\jre\bin;C:\dev\apama_win_full_latest\Apama\..\jvm\jvm\jre\bin\server;C:\dev\apama_win_full_latest\Apama\..\UniversalMessaging\cplus\lib\x86_64;C:\dev\apama_win_full_latest\Apama\bin;C:\Windows\system32;C:\Windows;C:\Windows\System32\Wbem;C:\Windows\System32\WindowsPowerShell\v1.0\;C:\Windows\System32\OpenSSH\;C:\Program Files\Intel\WiFi\bin\;C:\Program Files\Common Files\Intel\WirelessCommon\;C:\Program Files (x86)\Intel\Intel(R) Management Engine Components\DAL;C:\Program Files\Intel\Intel(R) Management Engine Components\DAL;C:\Program Files\PuTTY\;C:\Program Files\SlikSvn\bin;C:\Program Files\dotnet\;C:\Program Files\Microsoft SQL Server\130\Tools\Binn\;C:\Program Files\TortoiseSVN\bin;C:\Program Files\TortoiseGit\bin;C:\Users\y508970\AppData\Local\Microsoft\WindowsApps;C:\Users\y508970\AppData\Local\Programs\Git\cmd;C:\Users\y508970\AppData\Local\GitHubDesktop\bin</variable><variable>PATHEXT=.COM;.EXE;.BAT;.CMD;.VBS;.VBE;.JS;.JSE;.WSF;.WSH;.MSC</variable><variable>PROCESSOR_ARCHITECTURE=AMD64</variable><variable>PROCESSOR_IDENTIFIER=Intel64 Family 6 Model 78 Stepping 3, GenuineIntel</variable><variable>PROCESSOR_LEVEL=6</variable><variable>PROCESSOR_REVISION=4e03</variable><variable>PROGRAMDATA=C:\ProgramData</variable><variable>PROGRAMFILES=C:\Program Files</variable><variable>PROGRAMFILES(X86)=C:\Program Files (x86)</variable><variable>PROGRAMW6432=C:\Program Files</variable><variable>PROMPT=$P$G</variable><variable>PSMODULEPATH=C:\Program Files\WindowsPowerShell\Modules;C:\Windows\system32\WindowsPowerShell\v1.0\Modules;C:\Program Files\Barracuda\Network Access Client\Modules</variable><variable>PUBLIC=C:\Users\Public</variable><variable>SESSIONNAME=Console</variable><variable>SSL_CERT_FILE=C:\dev\apama_win_full_latest\Apama\..\common\security\openssl\cert.pem</variable><variable>SYSTEMDRIVE=C:</variable><variable>SYSTEMROOT=C:\Windows</variable><variable>TEMP=C:\Users\y508970\AppData\Local\Temp</variable><variable>TMP=C:\Users\y508970\AppData\Local\Temp</variable><variable>USERDNSDOMAIN=EUR.AD.SAG</variable><variable>USERDOMAIN=EUR</variable><variable>USERDOMAIN_ROAMINGPROFILE=EUR</variable><variable>USERNAME=y508970</variable><variable>USERPROFILE=C:\Users\y508970</variable><variable>WINDIR=C:\Windows</variable></environment><version>10.5.0.0.357639</version></header>
YAML 000005c5 ###############################################################################
# $Copyright (c) 2016 Software AG, Darmstadt, Germany and/or Software AG USA Inc., Reston, VA, USA, and/or its subsidiaries and/or its affiliates and/or their licensors.$
# Use, reproduction, transfer, publication or disclosure is prohibited except as specifically provided for in your License Agreement with Software AG
###############################################################################

#To set the default log file and level for an EPL package, monitor, or event, specify
# logging details in the eplLogging section of the YAML configuration file.
#For example:
#eplLogging:
#  com.myCompany.Client:
#    file: apama/Client.log
#    level: DEBUG
#  com.myCompany.Internal: { level: ERROR }

engineConnect:
    - sourceHost: localhost
      sourcePort: 15903

      channels:
        - roastSimulatorChannel
        - extractorSimulatorChannel
        - freezeSimulatorChannel
        - freezeDryerSimulatorChannel

      mode: parallel
      disconnectIfSlow: true

#See the information on setting log files and log levels in a YAML configuration file in the documentation for more
# information about the supported options.
#To enable use of this file when you launch this project from Designer, edit the project's run/launch configuration,
#open the correlator, and tick the "Configuration" checkbox next to the textbox that names this .yaml file.
 00000055 C:\Users\y508970\workspace105\CoffeeFactoryDataSimulator\config\CorrelatorConfig.yaml
RAND 00000009 467089342
TIME 00000010 1568130154.176,1
CONN 0000003c 6735067719755155808:6734786253368379744 from 127.0.0.1:55290
CONN 0000003c 1907214234774601728:2006141178469679104 from 127.0.0.1:55287
TIME 0000000e 1568130155.2,1
MONF 0000145f 
/** This event consists of events full of constants which are used in the RoastDrum.mon file */

event BeanColor{
	constant integer VERY_LIGHT := 90;
	constant integer LIGHT := 80;
	constant integer YELLOW := 70;
	constant integer BROWN := 60;
	constant integer VERY_BROWN := 40;
	constant integer BLACK := 20;
}

event AlertType{
	constant integer IMMINENT_FIRE := 1;
	constant integer FIRST_CRACK := 2;
	constant integer BROWN_STAGE := 3;
	constant integer FULL_CITY := 4;
	constant integer VIENA_COFFEE := 5;
	constant integer FULL_FRENCH := 6;
}

event BeanColorVolt{
	constant float MAXIMUM := 100.0; // = 10Volt DC -> green bean;
	constant float MINIMUM := 10.0; // = 1Volt DC -> extremely dark black bean;
}

event BeanTemp{
	// ALL values below are temperatures in celsius.
	//The names of the constants represent the color of the beans at the specific temperatures;
	constant float PALE := 131.0;
	constant integer LIGHT_BROWN := 198;
	constant integer MEDIUM_LIGHT_BROWN := 207;
	constant integer FULL_MEDIUM := 218;
	constant integer MEDIUM_DARK_BROWN := 223;
	constant integer DARK_BROWN := 229;
	constant integer VERY_DARK := 243;
	
}

event FreezerTemp{
	constant float RANDOM_FLUCTUATION_NUMBER := 1.5;
}

event FreezerDryer{
	constant float RANDOM_FLUCTUATION_NUMBER := 1.9;
	constant float MINIMUM_MOISTURE := 0.0;
}

event UserStatus{
	//The values represent the names of the queries that are passed to Prometheus
	//from which Grafana request them and uses their data;
	//Variables below are used in RoastDrum.mon
	constant string DRUM := "drum";
	constant string BEAN_COLOR := "beanColor";
	constant string BEAN_ILLUSTRATOR := "beanIllustrator";
	constant string ALERT := "alert";
	
	//Variables below are used in Extractor.mon
	constant string CAFFEINE := "caffeine";
	constant string VOLATILE_OILS := "volatileOils";
	constant string ORGANIC_ACIDS := "organicAcids";
	constant string EXTRACTOR_TEMP := "extractorTemp";
	constant string COFFEE_TO_WATER_RATIO := "coffeeToWater";
	
	constant string FREEZER_TEMP := "freezerTemp";
	
	constant string MOISTURE := "moisture";
	constant string VACUUM := "vacuum";
	constant string FREEZER_DRYER_TEMP := "freezerDryerTemp";
}

event Channel{
	constant string ROAST := "roastChannel";
	constant string EXTRACTOR := "extractorChannel";
	constant string FREEZE := "freezeChannel";
	constant string FREEZE_DRYER := "freezeDryerChannel";
	
	constant string ROAST_SIMULATOR := "roastSimulatorChannel";
	constant string EXTRACTOR_SIMULATOR := "extractorSimulatorChannel";
    constant string FREEZER_SIMULATOR := "freezeSimulatorChannel";
    constant string FREEZE_DRYER_SIMULATOR := "freezeDryerSimulatorChannel";

}

event Caffeine{
	// default values used to increase/decrease the height/length of the caffeine graph;
	constant float GRAPH_HEIGHT := 7.7;
	constant float GRAPH_LENGTH := 0.188;
}

event VolatileOils{
	// default values used to increase/decrease the height/length of the volatile oils graph;
	constant float GRAPH_HEIGHT := 5.19;
	constant float GRAPH_LENGTH := 0.0415;
}

event OrganicAcids{
	// default values used to increase/decrease the height/length of the organic graph;
	constant float GRAPH_HEIGHT := 3.11;
	constant float GRAPH_LENGTH := 0.0197;
}

event Math{
	constant float CUBED := 3.0;
	constant float PLANCK_FORMULA_SUBTRACTOR := -1.0; // bl
}

event Message{
	constant string LOADED_ROAST_SIMULATOR := "Loaded monitor RoastSimulator";
	constant string LOADED_EXTRACT_SIMULATOR := "Loaded monitor ExtractorSimulator";
	constant string LOADED_FREEZER_SIMULATOR := "Loaded monitor FreezerSimulator";
	constant string LOADED_FREEZE_DRYER_SIMULATOR := "Loaded monitor FreezerDryerSimulator";
}

event Time{
	constant float ADD_SECOND := 1.0;
}

event ExtractionBounds{ // bounds within the graph
	constant float MAXIMUM := 110.0;
	constant float MINIMUM := 0.0;
}

event Temperature{
	constant float PREHEAT_NUMBER := 13.1; //A random number; The random number has to be lower than 20 and higher than 10;
	constant float DRUM_MINIMUM := 0.0;
	constant float IMMINENT_FIRE := 258.0; // temperature at which the beans will start going on fire;
	
	constant float EXTRACTOR_INITIAL := 140.0; // random number between 130 and 150;
	//Has to differ from the starting drum temp in RoastDrum because it looks better on Grafana;
	constant float EXTRACTOR_PREHEAT := 12.1;  //A random number; The random number has to be lower than 20 and higher than 10;
	
	constant float FREEZER_MAX := -60.0;
	constant float FREEZER_MIN := -20.0;
}

event ColorScheme{
	constant integer SIZE := 50; // the size of the color scheme graph on Grafana that is displaying the current color of the beans;
}

event Divider{
	constant integer BY_HALF := 2;
}

event BeanTracker{
	constant float COLOR_CHANGER := 0.9; // 
	constant float COLOR_GATE_ENTRY := 0.4; // representing the percent (e.g. 0.4 = 40%);
}

event BeanRandom{
	constant float TEMP_INCREMENTER := 1.8; // maximum random value;
	constant float GATE_BOUND := 1.0; // representing the maximum percent value(e.g. 1.0 = 100%, 0.9 = 90%);
}
 00000064 C:\Users\y508970\workspace105\CoffeeFactoryDataSimulator\eventdefinitions\CoffeeFactoryConstants.mon
MONF 00000cec 
/** This monitor is responsible for ...  */

event CaffeineEvent{
	float currentCaffeine;
}

event VolatileOilsEvent{
	float currentVolatileOils;
}

event OrganicAcidsEvent{
	float currentOrganicAcids;
}

event ExtractorTemperature{
	float currentTemperature;
}

monitor ExtractorSimulator {

	float currentCaffeine := 1.0;
	float currentVolatileOils := 3.0;
	float currentOrganicAcids := 8.0;
	float currentTemp := preheatExtractor();
	float currentCoffeeToWaterRatio := 0.0;
	
	boolean highExtractionTemp := false; // used as a gate to decrease the temp;
	boolean lowExtractionTemp := true; // used as a gate to increase the temp;
	
	float caffeineTimeCounterSecs := 0.0;
	float oilsTimeCounterSecs := 0.0;
	float acidsTimeCounterSecs := 0.0;
	
	//Side value => Amount of compound (Unit) - A
	
	action onload() {
		log Message.LOADED_EXTRACT_SIMULATOR at INFO;
		initialize();
	}

	action initialize(){
		implementExtractorTemp();
		extractAll();
	}

	action extractAll(){
		extractCaffeine();
		extractVolatileOils();
		extractOrganicAcids();
	}

	/** 
	...
	*/
	action extractCaffeine(){
		listener listen := on all wait (1.0){
			currentCaffeine := blackBodyFormula(caffeineTimeCounterSecs, Caffeine.GRAPH_HEIGHT, Caffeine.GRAPH_LENGTH);  
			send CaffeineEvent(currentCaffeine) to Channel.EXTRACTOR; 
			caffeineTimeCounterSecs := caffeineTimeCounterSecs + Time.ADD_SECOND;
		}
	}

	/** 
	...
	*/
	action extractVolatileOils(){
		listener listen := on all wait (1.0){		
			currentVolatileOils := blackBodyFormula(oilsTimeCounterSecs, VolatileOils.GRAPH_HEIGHT, VolatileOils.GRAPH_LENGTH);	
			send VolatileOilsEvent(currentVolatileOils) to Channel.EXTRACTOR; 
			oilsTimeCounterSecs := oilsTimeCounterSecs + Time.ADD_SECOND;
		}
	}
	
	/** 
	...
	*/	
	action extractOrganicAcids(){
		listener listen := on all wait (1.0){
			currentOrganicAcids := blackBodyFormula(acidsTimeCounterSecs, OrganicAcids.GRAPH_HEIGHT, OrganicAcids.GRAPH_LENGTH); 
			send OrganicAcidsEvent(currentOrganicAcids) to Channel.EXTRACTOR; 
			acidsTimeCounterSecs := acidsTimeCounterSecs + Time.ADD_SECOND;
		}
	}
	
	/** 
		Increases/decreases the temperature in the extractor drum;
		
	*/
	action implementExtractorTemp(){
		listener listen := on all wait (2.0){
			float randomTempIncrementor := (2.0).rand(); // TODO FIX MAGIC NUMBER;
			currentTemp := currentTemp + randomTempIncrementor;
			send ExtractorTemperature(currentTemp) to Channel.EXTRACTOR; 
		}
	}
	
	/** 
	@param time = the time that has passed in seconds;
	@param height = increase value for higher function and decrease for lower; 7.7 is a random default value;
	@param length = increase to shrink function, decrease to expand function; 0.188 is a random default value;
	@return Max Planck's formula for Black-body radition
	*/
	action blackBodyFormula(float time, float height, float length) returns float{
		return (height * (length * time).pow(Math.CUBED)) / ( (float.E).pow(length * time) - Math.PLANCK_FORMULA_SUBTRACTOR);
	}
	
	/** 
	...
	*/
	action updateCoffeeToWaterRatio(){	
		//send ... to ...
	}
	
	action preheatExtractor() returns float{
		return (Temperature.EXTRACTOR_PREHEAT).rand() + Temperature.EXTRACTOR_INITIAL;
	}
	
}
 00000058 C:\Users\y508970\workspace105\CoffeeFactoryDataSimulator\monitors\ExtractorSimulator.mon
MONF 000007d3 
/** This monitor is responsible for ...  */

event FreezerDryerMoisture{
	float currentMoisture;
}

event FreezerDryerTemp{
	float currentTemp;
}

event FreezerDryerVacuum{
	float currentVacuum;
}

event Alert{
	string asd;
}


monitor FreezeDryerSimulator {

	float currentMoisture := 100.0;
	float currentTemp := 60.0;
	float currentVacuum := 150.0;
		
	boolean tempGate := false;
	boolean vacuumGate := false;
	
	action onload() {
		listenning();

		initialize();
	}

	action initialize(){
		log Message.LOADED_FREEZE_DRYER_SIMULATOR at INFO;
		moistureEvaporating();
		implementTubeTemperature();
		implementTubeVacuum();
	}
		
	action moistureEvaporating(){
		listener listen := on all wait (2.0){
			float random := (FreezerDryer.RANDOM_FLUCTUATION_NUMBER).rand();
			currentMoisture := currentMoisture - random;
			send FreezerDryerMoisture(currentMoisture) to Channel.FREEZE_DRYER;
		}
	}
	
	action implementTubeTemperature(){
		listener listen := on all wait (3.0){
			float random := (1.0).rand();
			currentTemp := implementFluctuation(tempGate, currentTemp, random);
			send FreezerDryerTemp(currentTemp) to Channel.FREEZE_DRYER;
		}
	}
	
	action implementTubeVacuum(){
		listener listen := on all wait (2.0){
			float random := (3.0).rand(); 
			currentVacuum := implementFluctuation(vacuumGate, currentVacuum, random);
			send FreezerDryerVacuum(currentVacuum) to Channel.FREEZE_DRYER;
			log "VACUUM ======== " + currentVacuum.toString() at INFO;
		}
	}
	
	action implementFluctuation(boolean gate, float currentValue, float randomNumber) returns float{
		if gate {
			currentValue := currentValue - randomNumber;
			gate := false;
		}else{
			currentValue := currentValue + randomNumber;
			gate := true;
		}
		
		return currentValue;
	}
	
	action listenning(){
		monitor.subscribe(Channel.FREEZE_DRYER_SIMULATOR);
		on all Alert() as a{
			log "ALERT === ===== === " + a.asd at INFO;
		}
	}
	
	
}
 0000005a C:\Users\y508970\workspace105\CoffeeFactoryDataSimulator\monitors\FreezeDryerSimulator.mon
MONF 0000043f 
/** This monitor is responsible for ...  */

event FreezerTemperature{
	float currentFreezerTemp;
}

monitor FreezerSimulator {
	
	float currentFreezerTemp := -50.0; // default freezer temperature;
	boolean flag := false; //When using the random variable we either decrease or
	//increase the current freezer temperature, using this variable we set the turns;

	action onload() {
		log Message.LOADED_FREEZER_SIMULATOR at INFO;
		freeze();
	}
	
	action freeze(){
		listener listen := on all wait (3.0){
			float randomTemp := getRandomTemp();	
			currentFreezerTemp := (currentFreezerTemp + randomTemp);
			send FreezerTemperature(currentFreezerTemp) to Channel.FREEZE;
			log "Simulation Freezer temp: " + currentFreezerTemp.toString() at INFO;

		}
	}
	
	action getRandomTemp() returns float{
		float randomTemp := (FreezerTemp.RANDOM_FLUCTUATION_NUMBER).rand();
		// below = take turns adding -> subtracting random values; 
		if flag {
			randomTemp := -randomTemp;
			flag := false;
		}else{
			flag := true;
		}
		return randomTemp;
	}
	
}
 00000056 C:\Users\y508970\workspace105\CoffeeFactoryDataSimulator\monitors\FreezerSimulator.mon
MONF 00000ae2 
event ColorTrack{
	float currentBeanVolt;
}

event DrumTemperature{
	float currentDrumTemperature;
}

/** This monitor is responsible for ...  */

monitor RoastDrumSimulator {

	integer beanIllustrator := 1; //parses the number so the program can display the actual color of the bean in a range from 1 to 100; Where 1 is green and very black is 100;
	integer currentBeanTemp := 0; // average temp;

	float currentDrumTemp := preheatDrum(); // default temp in drum before roasting is just below 200, e.g. 190;
	float currentBeanVolt := BeanColorVolt.MAXIMUM; 
	
	boolean highRoastTemp := false; // used as a gate to decrease the temp;
	boolean lowRoastTemp := true; // used as a gate to increase the temp;
	
	action onload() {
		log Message.LOADED_ROAST_SIMULATOR at INFO;
		initialize();
	}

	action initialize(){
			heatDrum();
			colorTrack();
	}
	
	/** 
	@return ...
	*/
	action preheatDrum() returns float{
		return (Temperature.PREHEAT_NUMBER).rand() + BeanTemp.PALE;
	}
	
	/** 
		...
	*/
	action heatDrum(){		
		listener listen := on all wait (2.0){
			float randomTemp := (BeanRandom.TEMP_INCREMENTER).rand();				
			currentDrumTemp := (currentDrumTemp + randomTemp);
			send DrumTemperature(currentDrumTemp) to Channel.ROAST;
		}
	}	
	
	/** 
		....
	*/
	action colorTrack(){
		listener listen := on all wait (1.0){
			float randomVoltIncrease := (BeanTracker.COLOR_CHANGER).rand(); // the beans spin while in the drum, therefore their temperature might differ slightly. Plus, making the graph more realistic;
			float gate := (BeanRandom.GATE_BOUND).rand();
			integer beanColorIllustrator := getBeanIllustrator(currentBeanVolt);

			implementBeanVolt(gate, randomVoltIncrease);
			send ColorTrack(currentBeanVolt) to Channel.ROAST;
		}
	}
	
	/** 
	@param gate ...
	@param randomVoltIncrease ...
	*/
	action implementBeanVolt(float gate, float randomVoltIncrease){
		if gate <= BeanTracker.COLOR_GATE_ENTRY {
			currentBeanVolt := currentBeanVolt + randomVoltIncrease;
		}else{
			currentBeanVolt := currentBeanVolt - BeanTracker.COLOR_CHANGER; // 0-100 Volts DC; 280 maximum temp in drum -> 280/100 = 2.8; Therefore, 2.8 decrease per degree celsius;
		}
	}
	
	/** 
	@param beanVolt ...
	@return ....
		formula: the color scheme graph contains half the range the beanvolt has
		(i.e. BeanVolt starts at 100 and goes down to 0, colorScheme starts at 0 and goes up to 50).
		Hence, get half of bean volt and remove 50 since the colorScheme operates in the 0-50 range;
	*/
	action getBeanIllustrator(float beanVolt) returns integer {
		return (getHalf(beanVolt) - ColorScheme.SIZE).abs(); 
	}
	
	action getHalf(float value) returns integer{
		return value.floor() / Divider.BY_HALF;
	}
}
  00000054 C:\Users\y508970\workspace105\CoffeeFactoryDataSimulator\monitors\RoastSimulator.mon
TIME 0000000e 1568130156.2,1
CONN 0000003c 6735067723517446496:6733378886542084448 from 127.0.0.1:15903
DISC 0000003c 1907214234774601728:2006141178469679104 from 127.0.0.1:55287
TIME 0000000e 1568130157.2,1
TIME 0000000e 1568130157.8,1
EVNT 00000021 6735067723517446496 "",Alert("1")
TIME 0000000e 1568130158.2,1
TIME 0000000e 1568130159.2,1
TIME 0000000e 1568130160.2,1
TIME 0000000e 1568130161.2,1
TIME 0000000e 1568130162.2,1
TIME 0000000e 1568130163.2,1
TIME 0000000e 1568130164.2,1
TIME 0000000e 1568130165.2,1
TIME 0000000e 1568130166.2,1
TIME 0000000e 1568130167.2,1
TIME 0000000e 1568130168.2,1
TIME 0000000e 1568130169.2,1
TIME 0000000e 1568130170.2,1
TIME 0000000e 1568130171.2,1
TIME 0000000e 1568130172.2,1
TIME 0000000e 1568130173.2,1
TIME 0000000e 1568130174.2,1
TIME 0000000e 1568130175.2,1
TIME 0000000e 1568130176.2,1
TIME 0000000e 1568130177.2,1
TIME 0000000e 1568130178.2,1
TIME 0000000e 1568130179.2,1
TIME 0000000e 1568130180.2,1
TIME 0000000e 1568130181.2,1
TIME 0000000e 1568130182.2,1
TIME 0000000e 1568130183.2,1
TIME 0000000e 1568130184.2,1
TIME 0000000e 1568130185.2,1
TIME 0000000e 1568130186.2,1
TIME 0000000e 1568130187.2,1
TIME 0000000e 1568130188.2,1
TIME 0000000e 1568130189.2,1
TIME 0000000e 1568130190.2,1
TIME 0000000e 1568130191.2,1
TIME 0000000e 1568130192.2,1
TIME 0000000e 1568130193.2,1
TIME 0000000e 1568130194.2,1
TIME 0000000e 1568130195.2,1
TIME 0000000e 1568130196.2,1
TIME 0000000e 1568130197.2,1
TIME 0000000e 1568130198.2,1
TIME 0000000e 1568130199.2,1
TIME 0000000e 1568130200.2,1
TIME 0000000e 1568130201.2,1
TIME 0000000e 1568130202.2,1
TIME 0000000e 1568130203.2,1
TIME 0000000e 1568130204.2,1
TIME 0000000e 1568130205.2,1
TIME 0000000e 1568130206.2,1
TIME 0000000e 1568130207.2,1
TIME 0000000e 1568130208.2,1
TIME 0000000e 1568130209.2,1
TIME 0000000e 1568130210.2,1
TIME 0000000e 1568130211.2,1
TIME 0000000e 1568130212.2,1
TIME 0000000e 1568130213.2,1
TIME 0000000e 1568130214.2,1
TIME 0000000e 1568130215.2,1
TIME 0000000e 1568130216.2,1
TIME 0000000e 1568130217.2,1
TIME 0000000e 1568130218.2,1
TIME 0000000e 1568130219.2,1
TIME 0000000e 1568130220.2,1
TIME 0000000e 1568130221.2,1
TIME 0000000e 1568130222.2,1
TIME 0000000e 1568130223.2,1
TIME 0000000e 1568130224.2,1
TIME 0000000e 1568130225.2,1
TIME 0000000e 1568130226.2,1
TIME 0000000e 1568130227.2,1
TIME 0000000e 1568130228.2,1
TIME 0000000e 1568130229.2,1
TIME 0000000e 1568130230.2,1
TIME 0000000e 1568130231.2,1
TIME 0000000e 1568130232.2,1
TIME 0000000e 1568130233.2,1
TIME 0000000e 1568130234.2,1
TIME 0000000e 1568130235.2,1
TIME 0000000e 1568130236.2,1
TIME 0000000e 1568130237.2,1
TIME 0000000e 1568130238.2,1
TIME 0000000e 1568130239.2,1
TIME 0000000e 1568130240.2,1
TIME 0000000e 1568130241.2,1
TIME 0000000e 1568130242.2,1
TIME 0000000e 1568130243.2,1
TIME 0000000e 1568130244.2,1
TIME 0000000e 1568130245.2,1
TIME 0000000e 1568130246.2,1
TIME 0000000e 1568130247.2,1
TIME 0000000e 1568130248.2,1
TIME 0000000e 1568130249.2,1
TIME 0000000e 1568130250.2,1
TIME 0000000e 1568130251.2,1
TIME 0000000e 1568130252.2,1
TIME 0000000e 1568130253.2,1
TIME 0000000e 1568130254.2,1
TIME 0000000e 1568130255.2,1
TIME 0000000e 1568130256.2,1
TIME 0000000e 1568130257.2,1
TIME 0000000e 1568130258.2,1
TIME 0000000e 1568130259.2,1
TIME 0000000e 1568130260.2,1
TIME 0000000e 1568130261.2,1
TIME 0000000e 1568130262.2,1
TIME 0000000e 1568130263.2,1
TIME 0000000e 1568130264.2,1
TIME 0000000e 1568130265.2,1
TIME 0000000e 1568130266.2,1
TIME 0000000e 1568130267.2,1
TIME 0000000e 1568130268.2,1
TIME 0000000e 1568130269.2,1
TIME 0000000e 1568130270.2,1
TIME 0000000e 1568130271.2,1
TIME 0000000e 1568130272.2,1
TIME 0000000e 1568130273.2,1
TIME 0000000e 1568130274.2,1
TIME 0000000e 1568130275.2,1
TIME 0000000e 1568130276.2,1
TIME 0000000e 1568130277.2,1
TIME 0000000e 1568130278.2,1
TIME 0000000e 1568130279.2,1
TIME 0000000e 1568130280.2,1
TIME 0000000e 1568130281.2,1
TIME 0000000e 1568130282.2,1
TIME 0000000e 1568130283.2,1
TIME 0000000e 1568130284.2,1
TIME 0000000e 1568130285.2,1
TIME 0000000e 1568130286.2,1
TIME 0000000e 1568130287.2,1
TIME 0000000e 1568130288.2,1
TIME 0000000e 1568130289.2,1
TIME 0000000e 1568130290.2,1
TIME 0000000e 1568130291.2,1
TIME 0000000e 1568130292.2,1
TIME 0000000e 1568130293.2,1
TIME 0000000e 1568130294.2,1
TIME 0000000e 1568130295.2,1
TIME 0000000e 1568130296.2,1
TIME 0000000e 1568130297.2,1
TIME 0000000e 1568130298.2,1
TIME 0000000e 1568130299.2,1
TIME 0000000e 1568130300.2,1
TIME 0000000e 1568130301.2,1
TIME 0000000e 1568130302.2,1
TIME 0000000e 1568130303.2,1
TIME 0000000e 1568130304.2,1
TIME 0000000e 1568130305.2,1
TIME 0000000e 1568130306.2,1
TIME 0000000e 1568130307.2,1
TIME 0000000e 1568130308.2,1
TIME 0000000e 1568130309.2,1
TIME 0000000e 1568130310.2,1
TIME 0000000e 1568130311.2,1
TIME 0000000e 1568130312.2,1
TIME 0000000e 1568130313.2,1
TIME 0000000e 1568130314.2,1
TIME 0000000e 1568130315.2,1
TIME 0000000e 1568130316.2,1
TIME 0000000e 1568130317.2,1
TIME 0000000e 1568130318.2,1
TIME 0000000e 1568130319.2,1
TIME 0000000e 1568130320.2,1
TIME 0000000e 1568130321.2,1
TIME 0000000e 1568130322.2,1
TIME 0000000e 1568130323.2,1
TIME 0000000e 1568130324.2,1
TIME 0000000e 1568130325.2,1
TIME 0000000e 1568130326.2,1
TIME 0000000e 1568130327.2,1
TIME 0000000e 1568130328.2,1
TIME 0000000e 1568130329.2,1
TIME 0000000e 1568130330.2,1
TIME 0000000e 1568130331.2,1
TIME 0000000e 1568130332.2,1
TIME 0000000e 1568130333.2,1
TIME 0000000e 1568130334.2,1
TIME 0000000e 1568130335.2,1
TIME 0000000e 1568130336.2,1
TIME 0000000e 1568130337.2,1
TIME 0000000e 1568130338.2,1
TIME 0000000e 1568130339.2,1
TIME 0000000e 1568130340.2,1
TIME 0000000e 1568130341.2,1
TIME 0000000e 1568130342.2,1
TIME 0000000e 1568130343.2,1
TIME 0000000e 1568130344.2,1
TIME 0000000e 1568130345.2,1
TIME 0000000e 1568130346.2,1
TIME 0000000e 1568130347.2,1
TIME 0000000e 1568130348.2,1
TIME 0000000e 1568130349.2,1
TIME 0000000e 1568130350.2,1
TIME 0000000e 1568130351.2,1
TIME 0000000e 1568130352.2,1
TIME 0000000e 1568130353.2,1
TIME 0000000e 1568130354.2,1
TIME 0000000e 1568130355.2,1
TIME 0000000e 1568130356.2,1
TIME 0000000e 1568130357.2,1
TIME 0000000e 1568130358.2,1
TIME 0000000e 1568130359.2,1
TIME 0000000e 1568130360.2,1
TIME 0000000e 1568130361.2,1
TIME 0000000e 1568130362.2,1
TIME 0000000e 1568130363.2,1
TIME 0000000e 1568130364.2,1
TIME 0000000e 1568130365.2,1
TIME 0000000e 1568130366.2,1
TIME 0000000e 1568130367.2,1
TIME 0000000e 1568130368.2,1
TIME 0000000e 1568130369.2,1
TIME 0000000e 1568130370.2,1
TIME 0000000e 1568130371.2,1
TIME 0000000e 1568130372.2,1
TIME 0000000e 1568130373.2,1
TIME 0000000e 1568130374.2,1
TIME 0000000e 1568130375.2,1
TIME 0000000e 1568130376.2,1
TIME 0000000e 1568130377.2,1
TIME 0000000e 1568130378.2,1
TIME 0000000e 1568130379.2,1
TIME 0000000e 1568130380.2,1
TIME 0000000e 1568130381.2,1
TIME 0000000e 1568130382.2,1
TIME 0000000e 1568130383.2,1
TIME 0000000e 1568130384.2,1
TIME 0000000e 1568130385.2,1
TIME 0000000e 1568130386.2,1
TIME 0000000e 1568130387.2,1
TIME 0000000e 1568130388.2,1
TIME 0000000e 1568130389.2,1
TIME 0000000e 1568130390.2,1
TIME 0000000e 1568130391.2,1
TIME 0000000e 1568130392.2,1
TIME 0000000e 1568130393.2,1
TIME 0000000e 1568130394.2,1
TIME 0000000e 1568130395.2,1
TIME 0000000e 1568130396.2,1
TIME 0000000e 1568130397.2,1
TIME 0000000e 1568130398.2,1
TIME 0000000e 1568130399.2,1
TIME 0000000e 1568130400.2,1
TIME 0000000e 1568130401.2,1
TIME 0000000e 1568130402.2,1
TIME 0000000e 1568130403.2,1
TIME 0000000e 1568130404.2,1
TIME 0000000e 1568130405.2,1
TIME 0000000e 1568130406.2,1
TIME 0000000e 1568130407.2,1
TIME 0000000e 1568130408.2,1
TIME 0000000e 1568130409.2,1
TIME 0000000e 1568130410.2,1
TIME 0000000e 1568130411.2,1
TIME 0000000e 1568130412.2,1
TIME 0000000e 1568130413.2,1
TIME 0000000e 1568130414.2,1
TIME 0000000e 1568130415.2,1
TIME 0000000e 1568130416.2,1
TIME 0000000e 1568130417.2,1
TIME 0000000e 1568130418.2,1
TIME 0000000e 1568130419.2,1
TIME 0000000e 1568130420.2,1
TIME 0000000e 1568130421.2,1
TIME 0000000e 1568130422.2,1
TIME 0000000e 1568130423.2,1
TIME 0000000e 1568130424.2,1
TIME 0000000e 1568130425.2,1
TIME 0000000e 1568130426.2,1
TIME 0000000e 1568130427.2,1
TIME 0000000e 1568130428.2,1
TIME 0000000e 1568130429.2,1
TIME 0000000e 1568130430.2,1
TIME 0000000e 1568130431.2,1
TIME 0000000e 1568130432.2,1
TIME 0000000e 1568130433.2,1
TIME 0000000e 1568130434.2,1
TIME 0000000e 1568130435.2,1
TIME 0000000e 1568130436.2,1
TIME 0000000e 1568130437.2,1
TIME 0000000e 1568130438.2,1
TIME 0000000e 1568130439.2,1
TIME 0000000e 1568130440.2,1
TIME 0000000e 1568130441.2,1
TIME 0000000e 1568130442.2,1
TIME 0000000e 1568130443.2,1
TIME 0000000e 1568130444.2,1
TIME 0000000e 1568130445.2,1
TIME 0000000e 1568130446.2,1
TIME 0000000e 1568130447.2,1
TIME 0000000e 1568130448.2,1
TIME 0000000e 1568130449.2,1
TIME 0000000e 1568130450.2,1
TIME 0000000e 1568130451.2,1
TIME 0000000e 1568130452.2,1
TIME 0000000e 1568130453.2,1
TIME 0000000e 1568130454.2,1
TIME 0000000e 1568130455.2,1
TIME 0000000e 1568130456.2,1
TIME 0000000e 1568130457.2,1
TIME 0000000e 1568130458.2,1
TIME 0000000e 1568130459.2,1
TIME 0000000e 1568130460.2,1
TIME 0000000e 1568130461.2,1
TIME 0000000e 1568130462.2,1
TIME 0000000e 1568130463.2,1
TIME 0000000e 1568130464.2,1
TIME 0000000e 1568130465.2,1
TIME 0000000e 1568130466.2,1
TIME 0000000e 1568130467.2,1
TIME 0000000e 1568130468.2,1
TIME 0000000e 1568130469.2,1
TIME 0000000e 1568130470.2,1
TIME 0000000e 1568130471.2,1
TIME 0000000e 1568130472.2,1
TIME 0000000e 1568130473.2,1
TIME 0000000e 1568130474.2,1
TIME 0000000e 1568130475.2,1
TIME 0000000e 1568130476.2,1
TIME 0000000e 1568130477.2,1
TIME 0000000e 1568130478.2,1
TIME 0000000e 1568130479.2,1
TIME 0000000e 1568130480.2,1
TIME 0000000e 1568130481.2,1
TIME 0000000e 1568130482.2,1
TIME 0000000e 1568130483.2,1
TIME 0000000e 1568130484.2,1
TIME 0000000e 1568130485.2,1
TIME 0000000e 1568130486.2,1
TIME 0000000e 1568130487.2,1
TIME 0000000e 1568130488.2,1
TIME 0000000e 1568130489.2,1
TIME 0000000e 1568130490.2,1
TIME 0000000e 1568130491.2,1
TIME 0000000e 1568130492.2,1
TIME 0000000e 1568130493.2,1
TIME 0000000e 1568130494.2,1
TIME 0000000e 1568130495.2,1
TIME 0000000e 1568130496.2,1
TIME 0000000e 1568130497.2,1
TIME 0000000e 1568130498.2,1
TIME 0000000e 1568130499.2,1
TIME 0000000e 1568130500.2,1
TIME 0000000e 1568130501.2,1
TIME 0000000e 1568130502.2,1
TIME 0000000e 1568130503.2,1
TIME 0000000e 1568130504.2,1
TIME 0000000e 1568130505.2,1
DISC 0000003c 6735067723517446496:6733378886542084448 from 127.0.0.1:15903
TIME 0000000e 1568130506.2,1
DISC 0000003c 6735067719755155808:6734786253368379744 from 127.0.0.1:55290
