VERS 00000001 5
HEAD 0000139f <?xml version="1.0"?>
<?xml-stylesheet type="text/xsl" href="/resources/transform.xslt"?><header><componentName>correlator</componentName><version>10.5.0.0.357639</version><build>rel/10.5.0.x@357639</build><buildPlatform>amd64-win</buildPlatform><platform>Windows 10 Enterprise</platform><cputype>GenuineIntel family 6 model 14 stepping 3 Intel(R) Core(TM) i7-6600U CPU @ 2.60GHz</cputype><cpus name="cpus">4.00</cpus><javaEnabled>true</javaEnabled><replayLogMode>inputLog</replayLogMode><args><arg>C:\dev\apama_win_full_latest\Apama\bin\correlator.exe</arg><arg>--config</arg><arg>C:\Users\y508970\workspace105\CoffeeFactoryDataSimulator\config\CorrelatorConfig.yaml</arg><arg>--port</arg><arg>15904</arg><arg>--loglevel</arg><arg>INFO</arg><arg>--name</arg><arg>Apama Designer Correlator for CoffeeFactoryDataSimulator(CoffeeFactoryDataSimulator:Correlator2)</arg><arg>-j</arg><arg>--inputLog</arg><arg>logs/Correlator2_${START_TIME}_${ID}.input.log</arg></args><environment><variable>ALLUSERSPROFILE=C:\ProgramData</variable><variable>APAMA_HOME=C:\dev\apama_win_full_latest\Apama</variable><variable>APAMA_WORK=C:\Users\Public\SoftwareAG\ApamaWork_10.5</variable><variable>APPDATA=C:\Users\y508970\AppData\Roaming</variable><variable>COMMONPROGRAMFILES=C:\Program Files\Common Files</variable><variable>COMMONPROGRAMFILES(X86)=C:\Program Files (x86)\Common Files</variable><variable>COMMONPROGRAMW6432=C:\Program Files\Common Files</variable><variable>COMPUTERNAME=SAG-98V9PF2</variable><variable>COMSPEC=C:\Windows\system32\cmd.exe</variable><variable>DEFLOGDIR=C:\ProgramData\McAfee\Endpoint Security\Logs</variable><variable>DRIVERDATA=C:\Windows\System32\Drivers\DriverData</variable><variable>EMPIRUMSERVER=cukuni02.eur.ad.sag</variable><variable>EMPIRUMSERVICEPARTITION=0</variable><variable>EMPSRVLONG=cukuni02.eur.ad.sag</variable><variable>FPS_BROWSER_APP_PROFILE_STRING=Internet Explorer</variable><variable>FPS_BROWSER_USER_PROFILE_STRING=Default</variable><variable>HOMEDRIVE=C:</variable><variable>HOMEPATH=\Users\y508970</variable><variable>LOCALAPPDATA=C:\Users\y508970\AppData\Local</variable><variable>LOGONSERVER=\\CUKDC85</variable><variable>NUMBER_OF_PROCESSORS=4</variable><variable>ONEDRIVE=C:\Users\y508970\OneDrive - Software AG</variable><variable>ONEDRIVECOMMERCIAL=C:\Users\y508970\OneDrive - Software AG</variable><variable>OS=Windows_NT</variable><variable>PATH=C:\dev\apama_win_full_latest\Apama\..\jvm\jvm\jre\bin\server;C:\dev\apama_win_full_latest\Apama\..\jvm\jvm\jre\bin;C:\dev\apama_win_full_latest\Apama\bin;C:\dev\apama_win_full_latest\Apama\..\common\security\openssl\bin;C:\Users\Public\SoftwareAG\ApamaWork_10.5\lib;C:\dev\apama_win_full_latest\Apama\..\jvm\jvm\jre\bin;C:\dev\apama_win_full_latest\Apama\..\jvm\jvm\jre\bin\server;C:\dev\apama_win_full_latest\Apama\..\UniversalMessaging\cplus\lib\x86_64;C:\dev\apama_win_full_latest\Apama\bin;C:\Windows\system32;C:\Windows;C:\Windows\System32\Wbem;C:\Windows\System32\WindowsPowerShell\v1.0\;C:\Windows\System32\OpenSSH\;C:\Program Files\Intel\WiFi\bin\;C:\Program Files\Common Files\Intel\WirelessCommon\;C:\Program Files (x86)\Intel\Intel(R) Management Engine Components\DAL;C:\Program Files\Intel\Intel(R) Management Engine Components\DAL;C:\Program Files\PuTTY\;C:\Program Files\SlikSvn\bin;C:\Program Files\dotnet\;C:\Program Files\Microsoft SQL Server\130\Tools\Binn\;C:\Program Files\TortoiseSVN\bin;C:\Program Files\TortoiseGit\bin;C:\Users\y508970\AppData\Local\Microsoft\WindowsApps;C:\Users\y508970\AppData\Local\Programs\Git\cmd;C:\Users\y508970\AppData\Local\GitHubDesktop\bin</variable><variable>PATHEXT=.COM;.EXE;.BAT;.CMD;.VBS;.VBE;.JS;.JSE;.WSF;.WSH;.MSC</variable><variable>PROCESSOR_ARCHITECTURE=AMD64</variable><variable>PROCESSOR_IDENTIFIER=Intel64 Family 6 Model 78 Stepping 3, GenuineIntel</variable><variable>PROCESSOR_LEVEL=6</variable><variable>PROCESSOR_REVISION=4e03</variable><variable>PROGRAMDATA=C:\ProgramData</variable><variable>PROGRAMFILES=C:\Program Files</variable><variable>PROGRAMFILES(X86)=C:\Program Files (x86)</variable><variable>PROGRAMW6432=C:\Program Files</variable><variable>PROMPT=$P$G</variable><variable>PSMODULEPATH=C:\Program Files\WindowsPowerShell\Modules;C:\Windows\system32\WindowsPowerShell\v1.0\Modules;C:\Program Files\Barracuda\Network Access Client\Modules</variable><variable>PUBLIC=C:\Users\Public</variable><variable>SESSIONNAME=Console</variable><variable>SSL_CERT_FILE=C:\dev\apama_win_full_latest\Apama\..\common\security\openssl\cert.pem</variable><variable>SYSTEMDRIVE=C:</variable><variable>SYSTEMROOT=C:\Windows</variable><variable>TEMP=C:\Users\y508970\AppData\Local\Temp</variable><variable>TMP=C:\Users\y508970\AppData\Local\Temp</variable><variable>USERDNSDOMAIN=EUR.AD.SAG</variable><variable>USERDOMAIN=EUR</variable><variable>USERDOMAIN_ROAMINGPROFILE=EUR</variable><variable>USERNAME=y508970</variable><variable>USERPROFILE=C:\Users\y508970</variable><variable>WINDIR=C:\Windows</variable></environment><version>10.5.0.0.357639</version></header>
YAML 000005c5 ###############################################################################
# $Copyright (c) 2016 Software AG, Darmstadt, Germany and/or Software AG USA Inc., Reston, VA, USA, and/or its subsidiaries and/or its affiliates and/or their licensors.$
# Use, reproduction, transfer, publication or disclosure is prohibited except as specifically provided for in your License Agreement with Software AG
###############################################################################

#To set the default log file and level for an EPL package, monitor, or event, specify
# logging details in the eplLogging section of the YAML configuration file.
#For example:
#eplLogging:
#  com.myCompany.Client:
#    file: apama/Client.log
#    level: DEBUG
#  com.myCompany.Internal: { level: ERROR }

engineConnect:
    - sourceHost: localhost
      sourcePort: 15903

      channels:
        - roastSimulatorChannel
        - extractorSimulatorChannel
        - freezeSimulatorChannel
        - freezeDryerSimulatorChannel

      mode: parallel
      disconnectIfSlow: true

#See the information on setting log files and log levels in a YAML configuration file in the documentation for more
# information about the supported options.
#To enable use of this file when you launch this project from Designer, edit the project's run/launch configuration,
#open the correlator, and tick the "Configuration" checkbox next to the textbox that names this .yaml file.
 00000055 C:\Users\y508970\workspace105\CoffeeFactoryDataSimulator\config\CorrelatorConfig.yaml
RAND 00000009 550550852
TIME 0000000f 1568213615.85,1
CONN 0000003c 6735426181829020000:6735144715442243936 from 127.0.0.1:62515
CONN 0000003c 2342777155241902080:2364607344265330688 from 127.0.0.1:62513
TIME 0000000e 1568213616.7,1
MONF 00001578 
/** This event consists of events full of constants which are used in the RoastDrum.mon file */

event BeanColor{
	constant integer VERY_LIGHT := 90;
	constant integer LIGHT := 80;
	constant integer YELLOW := 70;
	constant integer BROWN := 60;
	constant integer VERY_BROWN := 40;
	constant integer BLACK := 20;
}

event AlertType{
	constant integer IMMINENT_FIRE := 1;
	constant integer FIRST_CRACK := 2;
	constant integer BROWN_STAGE := 3;
	constant integer FULL_CITY := 4;
	constant integer VIENA_COFFEE := 5;
	constant integer FULL_FRENCH := 6;
	
	constant integer HIGH_ROAST_DRUM_HEAT := 1;
	constant integer HIGH_EXTRACTION_DRUM_HEAT := 2;
	constant integer HIGH_TUBE_HEAT := 3;
	
	constant integer LOW_ROAST_DRUM_HEAT := 4;
	constant integer LOW_EXTRACTION_DRUM_HEAT := 5;
	constant integer LOW_TUBE_HEAT := 6;
	
}

event BeanColorVolt{
	constant float MAXIMUM := 100.0; // = 10Volt DC -> green bean;
	constant float MINIMUM := 10.0; // = 1Volt DC -> extremely dark black bean;
}

event BeanTemp{
	// ALL values below are temperatures in celsius.
	//The names of the constants represent the color of the beans at the specific temperatures;
	constant float PALE := 131.0;
	constant integer LIGHT_BROWN := 198;
	constant integer MEDIUM_LIGHT_BROWN := 207;
	constant integer FULL_MEDIUM := 218;
	constant integer MEDIUM_DARK_BROWN := 223;
	constant integer DARK_BROWN := 229;
	constant integer VERY_DARK := 243;
	
}

event FreezerTemp{
	constant float RANDOM_FLUCTUATION_NUMBER := 1.5;
}

event FreezerDryer{
	constant float RANDOM_FLUCTUATION_NUMBER := 1.9;
	constant float MINIMUM_MOISTURE := 0.0;
}

event UserStatus{
	//The values represent the names of the queries that are passed to Prometheus
	//from which Grafana request them and uses their data;
	//Variables below are used in RoastDrum.mon
	constant string DRUM := "drum";
	constant string BEAN_COLOR := "beanColor";
	constant string BEAN_ILLUSTRATOR := "beanIllustrator";
	constant string ALERT := "alert";
	
	//Variables below are used in Extractor.mon
	constant string CAFFEINE := "caffeine";
	constant string VOLATILE_OILS := "volatileOils";
	constant string ORGANIC_ACIDS := "organicAcids";
	constant string EXTRACTOR_TEMP := "extractorTemp";
	constant string COFFEE_TO_WATER_RATIO := "coffeeToWater";
	
	constant string FREEZER_TEMP := "freezerTemp";
	
	constant string MOISTURE := "moisture";
	constant string VACUUM := "vacuum";
	constant string FREEZER_DRYER_TEMP := "freezerDryerTemp";
}

event Channel{
	constant string ROAST := "roastChannel";
	constant string EXTRACTOR := "extractorChannel";
	constant string FREEZE := "freezeChannel";
	constant string FREEZE_DRYER := "freezeDryerChannel";
	
	constant string ROAST_SIMULATOR := "roastSimulatorChannel";
	constant string EXTRACTOR_SIMULATOR := "extractorSimulatorChannel";
    constant string FREEZER_SIMULATOR := "freezeSimulatorChannel";
    constant string FREEZE_DRYER_SIMULATOR := "freezeDryerSimulatorChannel";

}

event Caffeine{
	// default values used to increase/decrease the height/length of the caffeine graph;
	constant float GRAPH_HEIGHT := 7.7;
	constant float GRAPH_LENGTH := 0.188;
}

event VolatileOils{
	// default values used to increase/decrease the height/length of the volatile oils graph;
	constant float GRAPH_HEIGHT := 5.19;
	constant float GRAPH_LENGTH := 0.0415;
}

event OrganicAcids{
	// default values used to increase/decrease the height/length of the organic graph;
	constant float GRAPH_HEIGHT := 3.11;
	constant float GRAPH_LENGTH := 0.0197;
}

event Math{
	constant float CUBED := 3.0;
	constant float PLANCK_FORMULA_SUBTRACTOR := -1.0; // bl
}

event Message{
	constant string LOADED_ROAST_SIMULATOR := "Loaded monitor RoastSimulator";
	constant string LOADED_EXTRACT_SIMULATOR := "Loaded monitor ExtractorSimulator";
	constant string LOADED_FREEZER_SIMULATOR := "Loaded monitor FreezerSimulator";
	constant string LOADED_FREEZE_DRYER_SIMULATOR := "Loaded monitor FreezerDryerSimulator";
}

event Time{
	constant float ADD_SECOND := 1.0;
}

event ExtractionBounds{ // bounds within the graph
	constant float MAXIMUM := 110.0;
	constant float MINIMUM := 0.0;
}

event Temperature{
	constant float PREHEAT_NUMBER := 13.1; //A random number; The random number has to be lower than 20 and higher than 10;
	constant float DRUM_MINIMUM := 0.0;
	constant float IMMINENT_FIRE := 258.0; // temperature at which the beans will start going on fire;
	
	constant float EXTRACTOR_INITIAL := 140.0; // random number between 130 and 150;
	//Has to differ from the starting drum temp in RoastDrum because it looks better on Grafana;
	constant float EXTRACTOR_PREHEAT := 12.1;  //A random number; The random number has to be lower than 20 and higher than 10;
	
	constant float FREEZER_MAX := -60.0;
	constant float FREEZER_MIN := -20.0;
}

event ColorScheme{
	constant integer SIZE := 50; // the size of the color scheme graph on Grafana that is displaying the current color of the beans;
}

event Divider{
	constant integer BY_HALF := 2;
}

event BeanTracker{
	constant float COLOR_CHANGER := 0.9; // 
	constant float COLOR_GATE_ENTRY := 0.43; // representing the percent (e.g. 0.4 = 40%);
}

event BeanRandom{
	constant float TEMP_INCREMENTER := 1.8; // maximum random value;
	constant float GATE_BOUND := 1.0; // representing the maximum percent value(e.g. 1.0 = 100%, 0.9 = 90%);
}
 00000064 C:\Users\y508970\workspace105\CoffeeFactoryDataSimulator\eventdefinitions\CoffeeFactoryConstants.mon
MONF 00001255 
/** This monitor is responsible for ...  */

event CaffeineEvent{
	float currentCaffeine;
}

event VolatileOilsEvent{
	float currentVolatileOils;
}

event OrganicAcidsEvent{
	float currentOrganicAcids;
}

event ExtractorTemperature{
	float currentTemperature;
}

monitor ExtractorSimulator {

	float currentCaffeine := 1.0;
	float currentVolatileOils := 3.0;
	float currentOrganicAcids := 8.0;
	float currentTemp := preheatExtractor();
	float currentCoffeeToWaterRatio := 0.0;
	
	boolean highExtractionTemp := false; // used as a gate to decrease the temp;
	boolean lowExtractionTemp := true; // used as a gate to increase the temp;
	
	float caffeineTimeCounterSecs := 0.0;
	float oilsTimeCounterSecs := 0.0;
	float acidsTimeCounterSecs := 0.0;
	
	//randomly selected numbers, used to create diversity,
	//making the graphs always with a different height/length from before;
	float caffeineGraphHeightRandom := (1.5).rand();
	float caffeineGraphLengthRandom := (0.030).rand();
	
	float oilsGraphHeightRandom := (0.7).rand();
	float oilsGraphLengthRandom := (0.0090).rand();
	
	float acidsGraphHeightRandom := (0.2).rand();
	float acidsGraphLengthRandom := (0.0027).rand();
	
	//Side value => Amount of compound (Unit) - A
	
	action onload() {
		log Message.LOADED_EXTRACT_SIMULATOR at INFO;
		initialize();
	}

	action initialize(){
		implementExtractorTemp();
		extractAll();
	}

	action extractAll(){
		extractCaffeine();
		extractVolatileOils();
		extractOrganicAcids();
	}

	/** 
	...
	*/
	action extractCaffeine(){
		listener listen := on all wait (1.0){
			currentCaffeine := blackBodyFormula(caffeineTimeCounterSecs, getCaffeineGraphHeight(), getCaffeineGraphLength());  
			send CaffeineEvent(currentCaffeine) to Channel.EXTRACTOR; 
			caffeineTimeCounterSecs := caffeineTimeCounterSecs + Time.ADD_SECOND;
			log "Caffeine ==== " + currentCaffeine.toString() at INFO;

		}
	}
	
	/** 
	...
	*/
	action extractVolatileOils(){
		listener listen := on all wait (1.0){		
			currentVolatileOils := blackBodyFormula(oilsTimeCounterSecs, getVolatileOilsGraphHeight(), getVolatileOilsGraphLength());	
			send VolatileOilsEvent(currentVolatileOils) to Channel.EXTRACTOR; 
			oilsTimeCounterSecs := oilsTimeCounterSecs + Time.ADD_SECOND;
			log "Volatile oils ==== " + currentVolatileOils.toString() at INFO;

		}
	}
	
	/** 
	...
	*/	
	action extractOrganicAcids(){
		listener listen := on all wait (1.0){
			currentOrganicAcids := blackBodyFormula(acidsTimeCounterSecs, getOrganicAcidsGraphHeight(), getOrganicAcidsLenght()); 
			send OrganicAcidsEvent(currentOrganicAcids) to Channel.EXTRACTOR; 
			acidsTimeCounterSecs := acidsTimeCounterSecs + Time.ADD_SECOND;
			log "Organic acids ==== " + currentOrganicAcids.toString() at INFO;
		}
	}
	
	/** 
		Increases/decreases the temperature in the extractor drum;
		
	*/
	action implementExtractorTemp(){
		listener listen := on all wait (2.0){
			float randomTempIncrementor := (2.0).rand(); // TODO FIX MAGIC NUMBER;
			currentTemp := currentTemp + randomTempIncrementor;
			send ExtractorTemperature(currentTemp) to Channel.EXTRACTOR; 
		}
	}
	
	/** 
	@param time = the time that has passed in seconds;
	@param height = increase value for higher function and decrease for lower; 7.7 is a random default value;
	@param length = increase to shrink function, decrease to expand function; 0.188 is a random default value;
	@return Max Planck's formula for Black-body radition
	*/
	action blackBodyFormula(float time, float height, float length) returns float{
		return (height * (length * time).pow(Math.CUBED)) / ( (float.E).pow(length * time) - Math.PLANCK_FORMULA_SUBTRACTOR);
	}
	
	/** 
	...
	*/
	action updateCoffeeToWaterRatio(){	
		//send ... to ...
	}
	
	action getCaffeineGraphHeight() returns float{
		return Caffeine.GRAPH_HEIGHT - caffeineGraphHeightRandom; 
	}
	
	action getCaffeineGraphLength() returns float{
		return Caffeine.GRAPH_LENGTH - caffeineGraphLengthRandom; 
	}
	
	action getVolatileOilsGraphHeight() returns float{
		return VolatileOils.GRAPH_HEIGHT - oilsGraphHeightRandom; 
	}
	
	action getVolatileOilsGraphLength() returns float{
		return VolatileOils.GRAPH_LENGTH - oilsGraphLengthRandom; 
	}
	
	action getOrganicAcidsGraphHeight() returns float{
		return OrganicAcids.GRAPH_HEIGHT - acidsGraphHeightRandom; 
	}
	
	action getOrganicAcidsLenght() returns float{
		return OrganicAcids.GRAPH_LENGTH - acidsGraphLengthRandom; 
	}
	
	action preheatExtractor() returns float{
		return (Temperature.EXTRACTOR_PREHEAT).rand() + Temperature.EXTRACTOR_INITIAL;
	}
	
}
 00000058 C:\Users\y508970\workspace105\CoffeeFactoryDataSimulator\monitors\ExtractorSimulator.mon
MONF 00000794 
/** This monitor is responsible for ...  */

event FreezerDryerMoisture{
	float currentMoisture;
}

event FreezerDryerTemp{
	float currentTemp;
}

event FreezerDryerVacuum{
	float currentVacuum;
}

event Alert{
	integer anAlert;
}


monitor FreezeDryerSimulator {

	float currentMoisture := 100.0;
	float currentTemp := 60.0;
	float currentVacuum := 150.0;
		
	action onload() {
		listenning();
		initialize();
	}

	action initialize(){
		log Message.LOADED_FREEZE_DRYER_SIMULATOR at INFO;
		moistureEvaporating();
		implementTubeTemperature();
		implementTubeVacuum();
	}
		
	action moistureEvaporating(){
		listener listen := on all wait (2.0){
			float random := (FreezerDryer.RANDOM_FLUCTUATION_NUMBER).rand();
			currentMoisture := currentMoisture - random;
			send FreezerDryerMoisture(currentMoisture) to Channel.FREEZE_DRYER;
		}
	}
	
	action implementTubeTemperature(){
		listener listen := on all wait (3.0){
			float random := (1.0).rand();
			float tempGate := (1.0).rand();

			currentTemp := implementFluctuation(tempGate, currentTemp, random);
			send FreezerDryerTemp(currentTemp) to Channel.FREEZE_DRYER;
		}
	}
	
	action implementTubeVacuum(){
		listener listen := on all wait (2.0){
			float random := (1.0).rand(); 
			float vacuumGate := (1.0).rand();

			currentVacuum := implementFluctuation(vacuumGate, currentVacuum, random);
			send FreezerDryerVacuum(currentVacuum) to Channel.FREEZE_DRYER;
		}
	}
	
	
	action implementFluctuation(float gate, float currentValue, float randomNumber) returns float{
		if gate <= 0.5 {
			currentValue := currentValue - randomNumber;
		}else{
			currentValue := currentValue + randomNumber;
		}
		return currentValue;
	}
	
	action listenning(){
		monitor.subscribe(Channel.FREEZE_DRYER_SIMULATOR);
		on all Alert() as a{
			log "ALERT === ===== === " + a.anAlert.toString() at INFO;
		}
	}
	
	
}
 0000005a C:\Users\y508970\workspace105\CoffeeFactoryDataSimulator\monitors\FreezeDryerSimulator.mon
TIME 0000000e 1568213616.8,1
MONF 0000043f 
/** This monitor is responsible for ...  */

event FreezerTemperature{
	float currentFreezerTemp;
}

monitor FreezerSimulator {
	
	float currentFreezerTemp := -50.0; // default freezer temperature;
	boolean flag := false; //When using the random variable we either decrease or
	//increase the current freezer temperature, using this variable we set the turns;

	action onload() {
		log Message.LOADED_FREEZER_SIMULATOR at INFO;
		freeze();
	}
	
	action freeze(){
		listener listen := on all wait (3.0){
			float randomTemp := getRandomTemp();	
			currentFreezerTemp := (currentFreezerTemp + randomTemp);
			send FreezerTemperature(currentFreezerTemp) to Channel.FREEZE;
			log "Simulation Freezer temp: " + currentFreezerTemp.toString() at INFO;

		}
	}
	
	action getRandomTemp() returns float{
		float randomTemp := (FreezerTemp.RANDOM_FLUCTUATION_NUMBER).rand();
		// below = take turns adding -> subtracting random values; 
		if flag {
			randomTemp := -randomTemp;
			flag := false;
		}else{
			flag := true;
		}
		return randomTemp;
	}
	
}
 00000056 C:\Users\y508970\workspace105\CoffeeFactoryDataSimulator\monitors\FreezerSimulator.mon
MONF 00000ceb 
event ColorTrack{
	float currentBeanVolt;
}

event DrumTemperature{
	float currentDrumTemperature;
}

/** This monitor is responsible for ...  */

monitor RoastDrumSimulator {

	integer beanIllustrator := 1; //parses the number so the program can display the actual color of the bean in a range from 1 to 100; Where 1 is green and very black is 100;
	integer currentBeanTemp := 0; // average temp;

	float currentDrumTemp := preheatDrum(); // default temp in drum before roasting is just below 200, e.g. 190;
	float currentBeanVolt := BeanColorVolt.MAXIMUM; 
	
	boolean highRoastTemp := false; // used as a gate to decrease the temp;
	boolean lowRoastTemp := true; // used as a gate to increase the temp;
	
	integer alertType := 0;
	
	boolean alertDetected := false;
	
	action onload() {
		log Message.LOADED_ROAST_SIMULATOR at INFO;
		initialize();
	}

	action initialize(){
			heatDrum();
			colorTrack();
	}
	
	/** 
	@return ...
	*/
	action preheatDrum() returns float{
		return (Temperature.PREHEAT_NUMBER).rand() + BeanTemp.PALE;
	}
	
	/** 
		...
	*/
	action heatDrum(){		
		listener listen := on all wait (2.0){
				float randomTemp := (BeanRandom.TEMP_INCREMENTER).rand();				
				currentDrumTemp := (currentDrumTemp + randomTemp);
				send DrumTemperature(currentDrumTemp) to Channel.ROAST;
		}
	}	
	
	/** 
		....
	*/
	action colorTrack(){
		listener listen := on all wait (1.0){
				float randomVoltIncrease := (BeanTracker.COLOR_CHANGER).rand(); // the beans spin while in the drum, therefore their temperature might differ slightly. Plus, making the graph more realistic;
				float gate := (BeanRandom.GATE_BOUND).rand();
				integer beanColorIllustrator := getBeanIllustrator(currentBeanVolt);

				implementBeanVolt(gate, randomVoltIncrease);	
				send ColorTrack(currentBeanVolt) to Channel.ROAST;
		}
	}
	
	/** 
	@param gate ...
	@param randomVoltIncrease ...
	*/
	action implementBeanVolt(float gate, float randomVoltIncrease){
		if gate <= BeanTracker.COLOR_GATE_ENTRY {
			currentBeanVolt := currentBeanVolt + randomVoltIncrease;
		}else{
			currentBeanVolt := currentBeanVolt - BeanTracker.COLOR_CHANGER; // 0-100 Volts DC; 280 maximum temp in drum -> 280/100 = 2.8; Therefore, 2.8 decrease per degree celsius;
		}
	}
	
	/** 
	@param beanVolt ...
	@return ....
		formula: the color scheme graph contains half the range the beanvolt has
		(i.e. BeanVolt starts at 100 and goes down to 0, colorScheme starts at 0 and goes up to 50).
		Hence, get half of bean volt and remove 50 since the colorScheme operates in the 0-50 range;
	*/
	action getBeanIllustrator(float beanVolt) returns integer {
		return (getHalf(beanVolt) - ColorScheme.SIZE).abs(); 
	}
	
	action getHalf(float value) returns integer{
		return value.floor() / Divider.BY_HALF;
	}
	
	action getAlert(){
		monitor.subscribe(Channel.ROAST_SIMULATOR);
		on all Alert() as a{
			alertType := a.anAlert;
		}
	}
	
	action listenForAlerts(){
		listener listen := on all wait (1.0){
			if alertType = AlertType.HIGH_ROAST_DRUM_HEAT{
				stopHeatDrum();
			}
		}
	}
	
	action stopHeatDrum(){
		on wait(5.0){
			log "HEAT DRUM STOPPED. NEW BEANS IN!" at INFO;
		}
		float currentDrumTemp := preheatDrum();
	}
	
	
}
  00000054 C:\Users\y508970\workspace105\CoffeeFactoryDataSimulator\monitors\RoastSimulator.mon
TIME 0000000e 1568213617.7,1
TIME 0000000e 1568213617.8,1
TIME 0000000e 1568213618.7,1
TIME 0000000e 1568213618.8,1
TIME 0000000e 1568213619.4,1
CONN 0000003c 6735426199051618656:6736270632571685216 from 127.0.0.1:15903
DISC 0000003c 2342777155241902080:2364607344265330688 from 127.0.0.1:62513
TIME 0000000e 1568213619.7,1
TIME 0000000e 1568213619.8,1
TIME 0000000e 1568213620.7,1
TIME 0000000e 1568213620.8,1
TIME 0000000e 1568213621.2,1
EVNT 0000001f 6735426199051618656 "",Alert(1)
TIME 0000000e 1568213621.7,1
TIME 0000000e 1568213621.8,1
TIME 0000000e 1568213622.7,1
TIME 0000000e 1568213622.8,1
TIME 0000000e 1568213623.7,1
TIME 0000000e 1568213623.8,1
TIME 0000000e 1568213624.7,1
TIME 0000000e 1568213624.8,1
TIME 0000000e 1568213625.7,1
TIME 0000000e 1568213625.8,1
TIME 0000000e 1568213626.7,1
TIME 0000000e 1568213626.8,1
TIME 0000000e 1568213627.7,1
TIME 0000000e 1568213627.8,1
TIME 0000000e 1568213628.7,1
TIME 0000000e 1568213628.8,1
TIME 0000000e 1568213629.7,1
TIME 0000000e 1568213629.8,1
TIME 0000000e 1568213630.7,1
TIME 0000000e 1568213630.8,1
TIME 0000000e 1568213631.7,1
TIME 0000000e 1568213631.8,1
TIME 0000000e 1568213632.7,1
TIME 0000000e 1568213632.8,1
TIME 0000000e 1568213633.7,1
TIME 0000000e 1568213633.8,1
TIME 0000000e 1568213634.7,1
TIME 0000000e 1568213634.8,1
TIME 0000000e 1568213635.7,1
TIME 0000000e 1568213635.8,1
TIME 0000000e 1568213636.7,1
TIME 0000000e 1568213636.8,1
TIME 0000000e 1568213637.7,1
TIME 0000000e 1568213637.8,1
TIME 0000000e 1568213638.7,1
TIME 0000000e 1568213638.8,1
TIME 0000000e 1568213639.7,1
TIME 0000000e 1568213639.8,1
TIME 0000000e 1568213640.7,1
TIME 0000000e 1568213640.8,1
TIME 0000000e 1568213641.7,1
TIME 0000000e 1568213641.8,1
TIME 0000000e 1568213642.7,1
TIME 0000000e 1568213642.8,1
TIME 0000000e 1568213643.7,1
TIME 0000000e 1568213643.8,1
TIME 0000000e 1568213644.7,1
TIME 0000000e 1568213644.8,1
TIME 0000000e 1568213645.7,1
TIME 0000000e 1568213645.8,1
TIME 0000000e 1568213646.7,1
TIME 0000000e 1568213646.8,1
TIME 0000000e 1568213647.7,1
TIME 0000000e 1568213647.8,1
TIME 0000000e 1568213648.7,1
TIME 0000000e 1568213648.8,1
TIME 0000000e 1568213649.7,1
TIME 0000000e 1568213649.8,1
TIME 0000000e 1568213650.7,1
TIME 0000000e 1568213650.8,1
TIME 0000000e 1568213651.7,1
TIME 0000000e 1568213651.8,1
TIME 0000000e 1568213652.7,1
TIME 0000000e 1568213652.8,1
TIME 0000000e 1568213653.7,1
TIME 0000000e 1568213653.8,1
TIME 0000000e 1568213654.7,1
TIME 0000000e 1568213654.8,1
TIME 0000000e 1568213655.7,1
TIME 0000000e 1568213655.8,1
TIME 0000000e 1568213656.7,1
TIME 0000000e 1568213656.8,1
TIME 0000000e 1568213657.7,1
TIME 0000000e 1568213657.8,1
TIME 0000000e 1568213658.7,1
TIME 0000000e 1568213658.8,1
TIME 0000000e 1568213659.7,1
TIME 0000000e 1568213659.8,1
TIME 0000000e 1568213660.7,1
TIME 0000000e 1568213660.8,1
TIME 0000000e 1568213661.7,1
TIME 0000000e 1568213661.8,1
TIME 0000000e 1568213662.7,1
TIME 0000000e 1568213662.8,1
TIME 0000000e 1568213663.7,1
TIME 0000000e 1568213663.8,1
TIME 0000000e 1568213664.7,1
TIME 0000000e 1568213664.8,1
TIME 0000000e 1568213665.7,1
TIME 0000000e 1568213665.8,1
TIME 0000000e 1568213666.7,1
TIME 0000000e 1568213666.8,1
TIME 0000000e 1568213667.7,1
TIME 0000000e 1568213667.8,1
TIME 0000000e 1568213668.7,1
TIME 0000000e 1568213668.8,1
TIME 0000000e 1568213669.7,1
TIME 0000000e 1568213669.8,1
TIME 0000000e 1568213670.7,1
TIME 0000000e 1568213670.8,1
TIME 0000000e 1568213671.7,1
TIME 0000000e 1568213671.8,1
TIME 0000000e 1568213672.7,1
TIME 0000000e 1568213672.8,1
TIME 0000000e 1568213673.7,1
TIME 0000000e 1568213673.8,1
TIME 0000000e 1568213674.7,1
TIME 0000000e 1568213674.8,1
TIME 0000000e 1568213675.7,1
TIME 0000000e 1568213675.8,1
TIME 0000000e 1568213676.7,1
TIME 0000000e 1568213676.8,1
TIME 0000000e 1568213677.7,1
TIME 0000000e 1568213677.8,1
TIME 0000000e 1568213678.7,1
TIME 0000000e 1568213678.8,1
TIME 0000000e 1568213679.7,1
TIME 0000000e 1568213679.8,1
TIME 0000000e 1568213680.7,1
TIME 0000000e 1568213680.8,1
TIME 0000000e 1568213681.7,1
TIME 0000000e 1568213681.8,1
TIME 0000000e 1568213682.7,1
TIME 0000000e 1568213682.8,1
TIME 0000000e 1568213683.7,1
TIME 0000000e 1568213683.8,1
TIME 0000000e 1568213684.7,1
TIME 0000000e 1568213684.8,1
TIME 0000000e 1568213685.7,1
TIME 0000000e 1568213685.8,1
TIME 0000000e 1568213686.7,1
TIME 0000000e 1568213686.8,1
TIME 0000000e 1568213687.7,1
TIME 0000000e 1568213687.8,1
TIME 0000000e 1568213688.7,1
TIME 0000000e 1568213688.8,1
TIME 0000000e 1568213689.7,1
TIME 0000000e 1568213689.8,1
TIME 0000000e 1568213690.7,1
TIME 0000000e 1568213690.8,1
TIME 0000000e 1568213691.7,1
TIME 0000000e 1568213691.8,1
TIME 0000000e 1568213692.7,1
TIME 0000000e 1568213692.8,1
TIME 0000000e 1568213693.7,1
TIME 0000000e 1568213693.8,1
TIME 0000000e 1568213694.7,1
TIME 0000000e 1568213694.8,1
TIME 0000000e 1568213695.7,1
TIME 0000000e 1568213695.8,1
TIME 0000000e 1568213696.7,1
TIME 0000000e 1568213696.8,1
TIME 0000000e 1568213697.7,1
TIME 0000000e 1568213697.8,1
TIME 0000000e 1568213698.7,1
TIME 0000000e 1568213698.8,1
TIME 0000000e 1568213699.7,1
TIME 0000000e 1568213699.8,1
TIME 0000000e 1568213700.7,1
TIME 0000000e 1568213700.8,1
TIME 0000000e 1568213701.7,1
TIME 0000000e 1568213701.8,1
TIME 0000000e 1568213702.7,1
TIME 0000000e 1568213702.8,1
TIME 0000000e 1568213703.7,1
TIME 0000000e 1568213703.8,1
TIME 0000000e 1568213704.7,1
TIME 0000000e 1568213704.8,1
TIME 0000000e 1568213705.7,1
TIME 0000000e 1568213705.8,1
TIME 0000000e 1568213706.7,1
TIME 0000000e 1568213706.8,1
TIME 0000000e 1568213707.7,1
TIME 0000000e 1568213707.8,1
TIME 0000000e 1568213708.7,1
TIME 0000000e 1568213708.8,1
TIME 0000000e 1568213709.7,1
TIME 0000000e 1568213709.8,1
TIME 0000000e 1568213710.7,1
TIME 0000000e 1568213710.8,1
TIME 0000000e 1568213711.7,1
TIME 0000000e 1568213711.8,1
TIME 0000000e 1568213712.7,1
TIME 0000000e 1568213712.8,1
TIME 0000000e 1568213713.7,1
TIME 0000000e 1568213713.8,1
TIME 0000000e 1568213714.7,1
TIME 0000000e 1568213714.8,1
TIME 0000000e 1568213715.7,1
TIME 0000000e 1568213715.8,1
TIME 0000000e 1568213716.7,1
TIME 0000000e 1568213716.8,1
TIME 0000000e 1568213717.7,1
TIME 0000000e 1568213717.8,1
TIME 0000000e 1568213718.7,1
TIME 0000000e 1568213718.8,1
TIME 0000000e 1568213719.7,1
TIME 0000000e 1568213719.8,1
TIME 0000000e 1568213720.7,1
TIME 0000000e 1568213720.8,1
TIME 0000000e 1568213721.7,1
TIME 0000000e 1568213721.8,1
TIME 0000000e 1568213722.7,1
TIME 0000000e 1568213722.8,1
TIME 0000000e 1568213723.7,1
TIME 0000000e 1568213723.8,1
TIME 0000000e 1568213724.7,1
TIME 0000000e 1568213724.8,1
TIME 0000000e 1568213725.7,1
TIME 0000000e 1568213725.8,1
TIME 0000000e 1568213726.7,1
TIME 0000000e 1568213726.8,1
TIME 0000000e 1568213727.7,1
TIME 0000000e 1568213727.8,1
TIME 0000000e 1568213728.7,1
TIME 0000000e 1568213728.8,1
TIME 0000000e 1568213729.7,1
TIME 0000000e 1568213729.8,1
TIME 0000000e 1568213730.7,1
TIME 0000000e 1568213730.8,1
TIME 0000000e 1568213731.7,1
TIME 0000000e 1568213731.8,1
TIME 0000000e 1568213732.7,1
TIME 0000000e 1568213732.8,1
TIME 0000000e 1568213733.7,1
TIME 0000000e 1568213733.8,1
TIME 0000000e 1568213734.7,1
TIME 0000000e 1568213734.8,1
TIME 0000000e 1568213735.7,1
TIME 0000000e 1568213735.8,1
TIME 0000000e 1568213736.7,1
TIME 0000000e 1568213736.8,1
TIME 0000000e 1568213737.7,1
TIME 0000000e 1568213737.8,1
TIME 0000000e 1568213738.7,1
TIME 0000000e 1568213738.8,1
TIME 0000000e 1568213739.7,1
TIME 0000000e 1568213739.8,1
TIME 0000000e 1568213740.7,1
TIME 0000000e 1568213740.8,1
TIME 0000000e 1568213741.7,1
TIME 0000000e 1568213741.8,1
TIME 0000000e 1568213742.7,1
TIME 0000000e 1568213742.8,1
TIME 0000000e 1568213743.7,1
TIME 0000000e 1568213743.8,1
TIME 0000000e 1568213744.7,1
TIME 0000000e 1568213744.8,1
TIME 0000000e 1568213745.7,1
TIME 0000000e 1568213745.8,1
TIME 0000000e 1568213746.7,1
TIME 0000000e 1568213746.8,1
TIME 0000000e 1568213747.7,1
TIME 0000000e 1568213747.8,1
TIME 0000000e 1568213748.7,1
TIME 0000000e 1568213748.8,1
TIME 0000000e 1568213749.7,1
TIME 0000000e 1568213749.8,1
TIME 0000000e 1568213750.7,1
TIME 0000000e 1568213750.8,1
TIME 0000000e 1568213751.7,1
TIME 0000000e 1568213751.8,1
TIME 0000000e 1568213752.7,1
TIME 0000000e 1568213752.8,1
TIME 0000000e 1568213753.7,1
TIME 0000000e 1568213753.8,1
TIME 0000000e 1568213754.7,1
TIME 0000000e 1568213754.8,1
TIME 0000000e 1568213755.7,1
TIME 0000000e 1568213755.8,1
TIME 0000000e 1568213756.7,1
TIME 0000000e 1568213756.8,1
TIME 0000000e 1568213757.7,1
TIME 0000000e 1568213757.8,1
TIME 0000000e 1568213758.7,1
TIME 0000000e 1568213758.8,1
TIME 0000000e 1568213759.7,1
TIME 0000000e 1568213759.8,1
TIME 0000000e 1568213760.7,1
TIME 0000000e 1568213760.8,1
TIME 0000000e 1568213761.7,1
TIME 0000000e 1568213761.8,1
TIME 0000000e 1568213762.7,1
TIME 0000000e 1568213762.8,1
TIME 0000000e 1568213763.7,1
TIME 0000000e 1568213763.8,1
TIME 0000000e 1568213764.7,1
TIME 0000000e 1568213764.8,1
TIME 0000000e 1568213765.7,1
TIME 0000000e 1568213765.8,1
TIME 0000000e 1568213766.7,1
TIME 0000000e 1568213766.8,1
TIME 0000000e 1568213767.7,1
TIME 0000000e 1568213767.8,1
TIME 0000000e 1568213768.7,1
TIME 0000000e 1568213768.8,1
TIME 0000000e 1568213769.7,1
TIME 0000000e 1568213769.8,1
TIME 0000000e 1568213770.7,1
TIME 0000000e 1568213770.8,1
TIME 0000000e 1568213771.7,1
TIME 0000000e 1568213771.8,1
TIME 0000000e 1568213772.7,1
TIME 0000000e 1568213772.8,1
TIME 0000000e 1568213773.7,1
TIME 0000000e 1568213773.8,1
TIME 0000000e 1568213774.7,1
TIME 0000000e 1568213774.8,1
TIME 0000000e 1568213775.7,1
TIME 0000000e 1568213775.8,1
TIME 0000000e 1568213776.7,1
TIME 0000000e 1568213776.8,1
TIME 0000000e 1568213777.7,1
TIME 0000000e 1568213777.8,1
TIME 0000000e 1568213778.7,1
TIME 0000000e 1568213778.8,1
TIME 0000000e 1568213779.7,1
TIME 0000000e 1568213779.8,1
TIME 0000000e 1568213780.7,1
TIME 0000000e 1568213780.8,1
TIME 0000000e 1568213781.7,1
TIME 0000000e 1568213781.8,1
TIME 0000000e 1568213782.7,1
TIME 0000000e 1568213782.8,1
TIME 0000000e 1568213783.7,1
TIME 0000000e 1568213783.8,1
TIME 0000000e 1568213784.7,1
TIME 0000000e 1568213784.8,1
TIME 0000000e 1568213785.7,1
TIME 0000000e 1568213785.8,1
TIME 0000000e 1568213786.7,1
TIME 0000000e 1568213786.8,1
TIME 0000000e 1568213787.7,1
TIME 0000000e 1568213787.8,1
TIME 0000000e 1568213788.7,1
TIME 0000000e 1568213788.8,1
TIME 0000000e 1568213789.7,1
TIME 0000000e 1568213789.8,1
TIME 0000000e 1568213790.7,1
TIME 0000000e 1568213790.8,1
TIME 0000000e 1568213791.7,1
TIME 0000000e 1568213791.8,1
TIME 0000000e 1568213792.7,1
TIME 0000000e 1568213792.8,1
TIME 0000000e 1568213793.7,1
TIME 0000000e 1568213793.8,1
TIME 0000000e 1568213794.7,1
TIME 0000000e 1568213794.8,1
TIME 0000000e 1568213795.7,1
TIME 0000000e 1568213795.8,1
TIME 0000000e 1568213796.7,1
TIME 0000000e 1568213796.8,1
TIME 0000000e 1568213797.7,1
TIME 0000000e 1568213797.8,1
TIME 0000000e 1568213798.7,1
TIME 0000000e 1568213798.8,1
TIME 0000000e 1568213799.7,1
TIME 0000000e 1568213799.8,1
TIME 0000000e 1568213800.7,1
TIME 0000000e 1568213800.8,1
TIME 0000000e 1568213801.7,1
TIME 0000000e 1568213801.8,1
TIME 0000000e 1568213802.7,1
TIME 0000000e 1568213802.8,1
TIME 0000000e 1568213803.7,1
TIME 0000000e 1568213803.8,1
TIME 0000000e 1568213804.7,1
TIME 0000000e 1568213804.8,1
TIME 0000000e 1568213805.7,1
TIME 0000000e 1568213805.8,1
TIME 0000000e 1568213806.7,1
TIME 0000000e 1568213806.8,1
TIME 0000000e 1568213807.7,1
TIME 0000000e 1568213807.8,1
TIME 0000000e 1568213808.7,1
TIME 0000000e 1568213808.8,1
TIME 0000000e 1568213809.7,1
TIME 0000000e 1568213809.8,1
TIME 0000000e 1568213810.7,1
TIME 0000000e 1568213810.8,1
TIME 0000000e 1568213811.7,1
TIME 0000000e 1568213811.8,1
TIME 0000000e 1568213812.7,1
TIME 0000000e 1568213812.8,1
TIME 0000000e 1568213813.7,1
TIME 0000000e 1568213813.8,1
TIME 0000000e 1568213814.7,1
TIME 0000000e 1568213814.8,1
TIME 0000000e 1568213815.7,1
TIME 0000000e 1568213815.8,1
TIME 0000000e 1568213816.7,1
TIME 0000000e 1568213816.8,1
TIME 0000000e 1568213817.7,1
TIME 0000000e 1568213817.8,1
TIME 0000000e 1568213818.7,1
TIME 0000000e 1568213818.8,1
TIME 0000000e 1568213819.7,1
TIME 0000000e 1568213819.8,1
TIME 0000000e 1568213820.7,1
TIME 0000000e 1568213820.8,1
TIME 0000000e 1568213821.7,1
TIME 0000000e 1568213821.8,1
TIME 0000000e 1568213822.7,1
TIME 0000000e 1568213822.8,1
TIME 0000000e 1568213823.7,1
TIME 0000000e 1568213823.8,1
TIME 0000000e 1568213824.7,1
TIME 0000000e 1568213824.8,1
TIME 0000000e 1568213825.7,1
TIME 0000000e 1568213825.8,1
TIME 0000000e 1568213826.7,1
TIME 0000000e 1568213826.8,1
TIME 0000000e 1568213827.7,1
TIME 0000000e 1568213827.8,1
TIME 0000000e 1568213828.7,1
TIME 0000000e 1568213828.8,1
TIME 0000000e 1568213829.7,1
TIME 0000000e 1568213829.8,1
TIME 0000000e 1568213830.7,1
TIME 0000000e 1568213830.8,1
TIME 0000000e 1568213831.7,1
TIME 0000000e 1568213831.8,1
TIME 0000000e 1568213832.7,1
TIME 0000000e 1568213832.8,1
TIME 0000000e 1568213833.7,1
TIME 0000000e 1568213833.8,1
TIME 0000000e 1568213834.7,1
TIME 0000000e 1568213834.8,1
TIME 0000000e 1568213835.7,1
TIME 0000000e 1568213835.8,1
TIME 0000000e 1568213836.7,1
TIME 0000000e 1568213836.8,1
TIME 0000000e 1568213837.7,1
TIME 0000000e 1568213837.8,1
TIME 0000000e 1568213838.7,1
TIME 0000000e 1568213838.8,1
TIME 0000000e 1568213839.7,1
TIME 0000000e 1568213839.8,1
TIME 0000000e 1568213840.7,1
TIME 0000000e 1568213840.8,1
TIME 0000000e 1568213841.7,1
TIME 0000000e 1568213841.8,1
TIME 0000000e 1568213842.7,1
TIME 0000000e 1568213842.8,1
TIME 0000000e 1568213843.7,1
TIME 0000000e 1568213843.8,1
TIME 0000000e 1568213844.7,1
TIME 0000000e 1568213844.8,1
TIME 0000000e 1568213845.7,1
TIME 0000000e 1568213845.8,1
TIME 0000000e 1568213846.7,1
TIME 0000000e 1568213846.8,1
TIME 0000000e 1568213847.7,1
TIME 0000000e 1568213847.8,1
TIME 0000000e 1568213848.7,1
TIME 0000000e 1568213848.8,1
TIME 0000000e 1568213849.7,1
TIME 0000000e 1568213849.8,1
TIME 0000000e 1568213850.7,1
TIME 0000000e 1568213850.8,1
TIME 0000000e 1568213851.7,1
TIME 0000000e 1568213851.8,1
TIME 0000000e 1568213852.7,1
TIME 0000000e 1568213852.8,1
TIME 0000000e 1568213853.7,1
TIME 0000000e 1568213853.8,1
TIME 0000000e 1568213854.7,1
TIME 0000000e 1568213854.8,1
TIME 0000000e 1568213855.7,1
TIME 0000000e 1568213855.8,1
TIME 0000000e 1568213856.7,1
TIME 0000000e 1568213856.8,1
TIME 0000000e 1568213857.7,1
TIME 0000000e 1568213857.8,1
TIME 0000000e 1568213858.7,1
TIME 0000000e 1568213858.8,1
TIME 0000000e 1568213859.7,1
TIME 0000000e 1568213859.8,1
TIME 0000000e 1568213860.7,1
TIME 0000000e 1568213860.8,1
TIME 0000000e 1568213861.7,1
TIME 0000000e 1568213861.8,1
TIME 0000000e 1568213862.7,1
TIME 0000000e 1568213862.8,1
TIME 0000000e 1568213863.7,1
TIME 0000000e 1568213863.8,1
TIME 0000000e 1568213864.7,1
TIME 0000000e 1568213864.8,1
TIME 0000000e 1568213865.7,1
TIME 0000000e 1568213865.8,1
TIME 0000000e 1568213866.7,1
TIME 0000000e 1568213866.8,1
TIME 0000000e 1568213867.7,1
TIME 0000000e 1568213867.8,1
TIME 0000000e 1568213868.7,1
TIME 0000000e 1568213868.8,1
TIME 0000000e 1568213869.7,1
TIME 0000000e 1568213869.8,1
TIME 0000000e 1568213870.7,1
TIME 0000000e 1568213870.8,1
TIME 0000000e 1568213871.7,1
TIME 0000000e 1568213871.8,1
TIME 0000000e 1568213872.7,1
TIME 0000000e 1568213872.8,1
TIME 0000000e 1568213873.7,1
TIME 0000000e 1568213873.8,1
TIME 0000000e 1568213874.7,1
TIME 0000000e 1568213874.8,1
TIME 0000000e 1568213875.1,1
EVNT 0000001f 6735426199051618656 "",Alert(1)
TIME 0000000e 1568213875.7,1
TIME 0000000e 1568213875.8,1
TIME 0000000e 1568213876.7,1
TIME 0000000e 1568213876.8,1
TIME 0000000e 1568213877.2,1
EVNT 0000001f 6735426199051618656 "",Alert(1)
TIME 0000000e 1568213877.7,1
TIME 0000000e 1568213877.8,1
TIME 0000000e 1568213878.7,1
TIME 0000000e 1568213878.8,1
TIME 0000000e 1568213879.1,1
EVNT 0000001f 6735426199051618656 "",Alert(1)
TIME 0000000e 1568213879.7,1
TIME 0000000e 1568213879.8,1
TIME 0000000e 1568213880.7,1
TIME 0000000e 1568213880.8,1
TIME 0000000e 1568213881.2,1
EVNT 0000001f 6735426199051618656 "",Alert(1)
TIME 0000000e 1568213881.7,1
TIME 0000000e 1568213881.8,1
TIME 0000000e 1568213882.7,1
TIME 0000000e 1568213882.8,1
TIME 0000000e 1568213883.2,1
EVNT 0000001f 6735426199051618656 "",Alert(1)
TIME 0000000e 1568213883.7,1
TIME 0000000e 1568213883.8,1
TIME 0000000e 1568213884.7,1
TIME 0000000e 1568213884.8,1
TIME 0000000e 1568213885.2,1
EVNT 0000001f 6735426199051618656 "",Alert(1)
TIME 0000000e 1568213885.7,1
TIME 0000000e 1568213885.8,1
TIME 0000000e 1568213886.7,1
TIME 0000000e 1568213886.8,1
TIME 0000000e 1568213887.2,1
EVNT 0000001f 6735426199051618656 "",Alert(1)
TIME 0000000e 1568213887.7,1
TIME 0000000e 1568213887.8,1
TIME 0000000e 1568213888.7,1
TIME 0000000e 1568213888.8,1
TIME 0000000e 1568213889.2,1
EVNT 0000001f 6735426199051618656 "",Alert(1)
TIME 0000000e 1568213889.7,1
TIME 0000000e 1568213889.8,1
TIME 0000000e 1568213890.7,1
TIME 0000000e 1568213890.8,1
TIME 0000000e 1568213891.2,1
EVNT 0000001f 6735426199051618656 "",Alert(1)
TIME 0000000e 1568213891.7,1
TIME 0000000e 1568213891.8,1
TIME 0000000e 1568213892.7,1
TIME 0000000e 1568213892.8,1
TIME 0000000e 1568213893.2,1
EVNT 0000001f 6735426199051618656 "",Alert(1)
TIME 0000000e 1568213893.7,1
TIME 0000000e 1568213893.8,1
TIME 0000000e 1568213894.7,1
TIME 0000000e 1568213894.8,1
TIME 0000000e 1568213895.2,1
EVNT 0000001f 6735426199051618656 "",Alert(1)
TIME 0000000e 1568213895.7,1
TIME 0000000e 1568213895.8,1
TIME 0000000e 1568213896.7,1
TIME 0000000e 1568213896.8,1
TIME 0000000e 1568213897.2,1
EVNT 0000001f 6735426199051618656 "",Alert(1)
TIME 0000000e 1568213897.7,1
TIME 0000000e 1568213897.8,1
TIME 0000000e 1568213898.7,1
TIME 0000000e 1568213898.8,1
TIME 0000000e 1568213899.2,1
EVNT 0000001f 6735426199051618656 "",Alert(1)
TIME 0000000e 1568213899.7,1
TIME 0000000e 1568213899.8,1
TIME 0000000e 1568213900.7,1
TIME 0000000e 1568213900.8,1
TIME 0000000e 1568213901.2,1
EVNT 0000001f 6735426199051618656 "",Alert(1)
TIME 0000000e 1568213901.7,1
TIME 0000000e 1568213901.8,1
TIME 0000000e 1568213902.7,1
TIME 0000000e 1568213902.8,1
TIME 0000000e 1568213903.2,1
EVNT 0000001f 6735426199051618656 "",Alert(1)
TIME 0000000e 1568213903.7,1
TIME 0000000e 1568213903.8,1
TIME 0000000e 1568213904.7,1
TIME 0000000e 1568213904.8,1
TIME 0000000e 1568213905.2,1
EVNT 0000001f 6735426199051618656 "",Alert(1)
TIME 0000000e 1568213905.7,1
TIME 0000000e 1568213905.8,1
TIME 0000000e 1568213906.7,1
TIME 0000000e 1568213906.8,1
TIME 0000000e 1568213907.2,1
EVNT 0000001f 6735426199051618656 "",Alert(1)
TIME 0000000e 1568213907.7,1
TIME 0000000e 1568213907.8,1
TIME 0000000e 1568213908.7,1
TIME 0000000e 1568213908.8,1
TIME 0000000e 1568213909.2,1
EVNT 0000001f 6735426199051618656 "",Alert(1)
TIME 0000000e 1568213909.7,1
TIME 0000000e 1568213909.8,1
DISC 0000003c 6735426181829020000:6735144715442243936 from 127.0.0.1:62515
